
#======================================================================
# CRYSTAL DATA
#----------------------------------------------------------------------
data_VESTA_phase_1

_chemical_name_common                  'POSCAR                                '
_cell_length_a                         31.130203
_cell_length_b                         10.173751
_cell_length_c                         20.035744
_cell_angle_alpha                      89.999886
_cell_angle_beta                       131.107574
_cell_angle_gamma                      89.999626
_cell_volume                           4781.214454
_space_group_name_H-M_alt              'P 1'
_space_group_IT_number                 1

loop_
_space_group_symop_operation_xyz
   'x, y, z'

loop_
   _atom_site_label
   _atom_site_occupancy
   _atom_site_fract_x
   _atom_site_fract_y
   _atom_site_fract_z
   _atom_site_adp_type
   _atom_site_U_iso_or_equiv
   _atom_site_type_symbol
   C1         1.0     0.683852     0.933372     0.387034    Uiso  ? C
   C2         1.0     0.597420     0.129572     0.339713    Uiso  ? C
   C3         1.0     0.675430     0.084555     0.501593    Uiso  ? C
   C4         1.0     0.694071     0.075082     0.400824    Uiso  ? C
   C5         1.0     0.661679     0.148897     0.419109    Uiso  ? C
   C6         1.0     0.660677     0.937267     0.483158    Uiso  ? C
   C7         1.0     0.585011     0.981100     0.322621    Uiso  ? C
   C8         1.0     0.690073     0.393614     0.673090    Uiso  ? C
   C9         1.0     0.683480     0.416597     0.739368    Uiso  ? C
   C10        1.0     0.663165     0.650871     0.704364    Uiso  ? C
   C11        1.0     0.642600     0.522154     0.716419    Uiso  ? C
   C12        1.0     0.583618     0.484942     0.626404    Uiso  ? C
   C13        1.0     0.669250     0.629523     0.634816    Uiso  ? C
   C14        1.0     0.590217     0.467238     0.557189    Uiso  ? C
   C15        1.0     0.184233     0.433958     0.388403    Uiso  ? C
   C16        1.0     0.096884     0.629059     0.333881    Uiso  ? C
   C17        1.0     0.169880     0.585695     0.496999    Uiso  ? C
   C18        1.0     0.195666     0.574682     0.405555    Uiso  ? C
   C19        1.0     0.160225     0.649033     0.417656    Uiso  ? C
   C20        1.0     0.156481     0.437726     0.478776    Uiso  ? C
   C21        1.0     0.084230     0.480472     0.317522    Uiso  ? C
   C22        1.0     0.188490     0.894304     0.672642    Uiso  ? C
   C23        1.0     0.181789     0.918364     0.738564    Uiso  ? C
   C24        1.0     0.163168     0.153628     0.704692    Uiso  ? C
   C25        1.0     0.141875     0.025789     0.716353    Uiso  ? C
   C26        1.0     0.082728     0.991576     0.625893    Uiso  ? C
   C27        1.0     0.169884     0.130678     0.636024    Uiso  ? C
   C28        1.0     0.089282     0.972327     0.556746    Uiso  ? C
   C29        1.0     0.315775     0.933967     0.111596    Uiso  ? C
   C30        1.0     0.403128     0.129062     0.166123    Uiso  ? C
   C31        1.0     0.330129     0.085711     0.003005    Uiso  ? C
   C32        1.0     0.304346     0.074691     0.094453    Uiso  ? C
   C33        1.0     0.339785     0.149042     0.082349    Uiso  ? C
   C34        1.0     0.343526     0.937740     0.021223    Uiso  ? C
   C35        1.0     0.415780     0.980474     0.182480    Uiso  ? C
   C36        1.0     0.311508     0.394299     0.827349    Uiso  ? C
   C37        1.0     0.318207     0.418372     0.761426    Uiso  ? C
   C38        1.0     0.336837     0.653628     0.795312    Uiso  ? C
   C39        1.0     0.358126     0.525786     0.783645    Uiso  ? C
   C40        1.0     0.417272     0.491560     0.874105    Uiso  ? C
   C41        1.0     0.330116     0.630672     0.863974    Uiso  ? C
   C42        1.0     0.410716     0.472312     0.943250    Uiso  ? C
   C43        1.0     0.816145     0.433369     0.112966    Uiso  ? C
   C44        1.0     0.902573     0.629573     0.160285    Uiso  ? C
   C45        1.0     0.824564     0.584557     0.998405    Uiso  ? C
   C46        1.0     0.805923     0.575077     0.099174    Uiso  ? C
   C47        1.0     0.838316     0.648897     0.080889    Uiso  ? C
   C48        1.0     0.839320     0.437270     0.016841    Uiso  ? C
   C49        1.0     0.914985     0.481102     0.177378    Uiso  ? C
   C50        1.0     0.809929     0.893626     0.826913    Uiso  ? C
   C51        1.0     0.816520     0.916612     0.760633    Uiso  ? C
   C52        1.0     0.836843     0.150878     0.795645    Uiso  ? C
   C53        1.0     0.857403     0.022157     0.783586    Uiso  ? C
   C54        1.0     0.916385     0.984941     0.873603    Uiso  ? C
   C55        1.0     0.830755     0.129531     0.865191    Uiso  ? C
   C56        1.0     0.909786     0.967235     0.942816    Uiso  ? C
   C57        1.0     0.316162     0.066630     0.612959    Uiso  ? C
   C58        1.0     0.402596     0.870456     0.660286    Uiso  ? C
   C59        1.0     0.324591     0.915457     0.498400    Uiso  ? C
   C60        1.0     0.305939     0.924924     0.599156    Uiso  ? C
   C61        1.0     0.338337     0.851112     0.580880    Uiso  ? C
   C62        1.0     0.339333     0.062749     0.516829    Uiso  ? C
   C63        1.0     0.415000     0.018932     0.677367    Uiso  ? C
   C64        1.0     0.309924     0.606393     0.326899    Uiso  ? C
   C65        1.0     0.316512     0.583400     0.260613    Uiso  ? C
   C66        1.0     0.336838     0.349134     0.295627    Uiso  ? C
   C67        1.0     0.357400     0.477855     0.283572    Uiso  ? C
   C68        1.0     0.416381     0.515070     0.373589    Uiso  ? C
   C69        1.0     0.330750     0.370483     0.365172    Uiso  ? C
   C70        1.0     0.409782     0.532771     0.442803    Uiso  ? C
   C71        1.0     0.815768     0.566044     0.611601    Uiso  ? C
   C72        1.0     0.903116     0.370932     0.666126    Uiso  ? C
   C73        1.0     0.830125     0.414303     0.503011    Uiso  ? C
   C74        1.0     0.804332     0.425324     0.594445    Uiso  ? C
   C75        1.0     0.839774     0.350969     0.582349    Uiso  ? C
   C76        1.0     0.843523     0.562272     0.521233    Uiso  ? C
   C77        1.0     0.915773     0.519517     0.682483    Uiso  ? C
   C78        1.0     0.811546     0.105688     0.327406    Uiso  ? C
   C79        1.0     0.818253     0.081645     0.261494    Uiso  ? C
   C80        1.0     0.836852     0.846360     0.295337    Uiso  ? C
   C81        1.0     0.858156     0.974194     0.283689    Uiso  ? C
   C82        1.0     0.917305     0.008386     0.374158    Uiso  ? C
   C83        1.0     0.830136     0.869306     0.364005    Uiso  ? C
   C84        1.0     0.910747     0.027640     0.443299    Uiso  ? C
   C85        1.0     0.684230     0.066049     0.888408    Uiso  ? C
   C86        1.0     0.596882     0.870943     0.833878    Uiso  ? C
   C87        1.0     0.669871     0.914301     0.996994    Uiso  ? C
   C88        1.0     0.695667     0.925326     0.905563    Uiso  ? C
   C89        1.0     0.660223     0.850972     0.917655    Uiso  ? C
   C90        1.0     0.656473     0.062271     0.978773    Uiso  ? C
   C91        1.0     0.584226     0.019528     0.817520    Uiso  ? C
   C92        1.0     0.688441     0.605703     0.172575    Uiso  ? C
   C93        1.0     0.681730     0.581655     0.238480    Uiso  ? C
   C94        1.0     0.663153     0.346365     0.204664    Uiso  ? C
   C95        1.0     0.641833     0.474192     0.216289    Uiso  ? C
   C96        1.0     0.582683     0.508354     0.125808    Uiso  ? C
   C97        1.0     0.669868     0.369310     0.135995    Uiso  ? C
   C98        1.0     0.589250     0.527624     0.056679    Uiso  ? C
   C99        1.0     0.183842     0.566639     0.887049    Uiso  ? C
   C100       1.0     0.097413     0.370452     0.839729    Uiso  ? C
   C101       1.0     0.175418     0.415460     0.001613    Uiso  ? C
   C102       1.0     0.194067     0.424933     0.900853    Uiso  ? C
   C103       1.0     0.161673     0.351117     0.919133    Uiso  ? C
   C104       1.0     0.160671     0.562750     0.983180    Uiso  ? C
   C105       1.0     0.085005     0.518926     0.822643    Uiso  ? C
   C106       1.0     0.190075     0.106386     0.173093    Uiso  ? C
   C107       1.0     0.183488     0.083394     0.239378    Uiso  ? C
   C108       1.0     0.163164     0.849130     0.204368    Uiso  ? C
   C109       1.0     0.142601     0.977851     0.216419    Uiso  ? C
   C110       1.0     0.083619     0.015061     0.126402    Uiso  ? C
   C111       1.0     0.169253     0.870476     0.134823    Uiso  ? C
   C112       1.0     0.090219     0.032763     0.057190    Uiso  ? C
   H1         1.0     0.667982     0.897477     0.321126    Uiso  ? H
   H2         1.0     0.721761     0.872326     0.437218    Uiso  ? H
   H3         1.0     0.572492     0.174962     0.354489    Uiso  ? H
   H4         1.0     0.586029     0.177576     0.281043    Uiso  ? H
   H5         1.0     0.650464     0.132278     0.515690    Uiso  ? H
   H6         1.0     0.720767     0.096786     0.559687    Uiso  ? H
   H7         1.0     0.672484     0.253625     0.430312    Uiso  ? H
   H8         1.0     0.697682     0.873905     0.529281    Uiso  ? H
   H9         1.0     0.627149     0.909248     0.484230    Uiso  ? H
   H10        1.0     0.553616     0.949480     0.327774    Uiso  ? H
   H11        1.0     0.570286     0.951204     0.257916    Uiso  ? H
   H12        1.0     0.629470     0.802918     0.379231    Uiso  ? H
   H13        1.0     0.733913     0.410983     0.699715    Uiso  ? H
   H14        1.0     0.676806     0.293662     0.644342    Uiso  ? H
   H15        1.0     0.632830     0.730663     0.683417    Uiso  ? H
   H16        1.0     0.704420     0.679398     0.767693    Uiso  ? H
   H17        1.0     0.639556     0.532712     0.767700    Uiso  ? H
   H18        1.0     0.568600     0.393169     0.633802    Uiso  ? H
   H19        1.0     0.552795     0.563154     0.605907    Uiso  ? H
   H20        1.0     0.641701     0.695183     0.577730    Uiso  ? H
   H21        1.0     0.713220     0.640535     0.662170    Uiso  ? H
   H22        1.0     0.579636     0.367457     0.530172    Uiso  ? H
   H23        1.0     0.564635     0.536829     0.501942    Uiso  ? H
   H24        1.0     0.653403     0.479158     0.549574    Uiso  ? H
   H25        1.0     0.168786     0.402768     0.321898    Uiso  ? H
   H26        1.0     0.221286     0.369931     0.437279    Uiso  ? H
   H27        1.0     0.069796     0.677796     0.343475    Uiso  ? H
   H28        1.0     0.088676     0.674962     0.277053    Uiso  ? H
   H29        1.0     0.141886     0.633269     0.505153    Uiso  ? H
   H30        1.0     0.214265     0.599641     0.558003    Uiso  ? H
   H31        1.0     0.170885     0.753856     0.429253    Uiso  ? H
   H32        1.0     0.193581     0.375967     0.527114    Uiso  ? H
   H33        1.0     0.121909     0.409190     0.477101    Uiso  ? H
   H34        1.0     0.051937     0.449711     0.320891    Uiso  ? H
   H35        1.0     0.071336     0.448827     0.254289    Uiso  ? H
   H36        1.0     0.128731     0.302698     0.376952    Uiso  ? H
   H37        1.0     0.232636     0.909338     0.699894    Uiso  ? H
   H38        1.0     0.174692     0.794762     0.643349    Uiso  ? H
   H39        1.0     0.132411     0.232800     0.682704    Uiso  ? H
   H40        1.0     0.204232     0.182333     0.768215    Uiso  ? H
   H41        1.0     0.138820     0.037050     0.767561    Uiso  ? H
   H42        1.0     0.066139     0.901520     0.631792    Uiso  ? H
   H43        1.0     0.052761     0.071764     0.605869    Uiso  ? H
   H44        1.0     0.143612     0.197855     0.579609    Uiso  ? H
   H45        1.0     0.214130     0.139062     0.664234    Uiso  ? H
   H46        1.0     0.078166     0.872632     0.529245    Uiso  ? H
   H47        1.0     0.064333     0.043330     0.502292    Uiso  ? H
   H48        1.0     0.152797     0.980237     0.549703    Uiso  ? H
   H49        1.0     0.331221     0.902765     0.178100    Uiso  ? H
   H50        1.0     0.278722     0.869945     0.062718    Uiso  ? H
   H51        1.0     0.430215     0.177795     0.156525    Uiso  ? H
   H52        1.0     0.411339     0.174965     0.222952    Uiso  ? H
   H53        1.0     0.358122     0.133282     0.994850    Uiso  ? H
   H54        1.0     0.285743     0.099661     0.942001    Uiso  ? H
   H55        1.0     0.329126     0.253867     0.070755    Uiso  ? H
   H56        1.0     0.306426     0.875984     0.972886    Uiso  ? H
   H57        1.0     0.378097     0.909202     0.022896    Uiso  ? H
   H58        1.0     0.448072     0.949708     0.179109    Uiso  ? H
   H59        1.0     0.428674     0.948825     0.245712    Uiso  ? H
   H60        1.0     0.371276     0.802705     0.123045    Uiso  ? H
   H61        1.0     0.267362     0.409335     0.800099    Uiso  ? H
   H62        1.0     0.325307     0.294757     0.856640    Uiso  ? H
   H63        1.0     0.367597     0.732792     0.817307    Uiso  ? H
   H64        1.0     0.295775     0.682346     0.731789    Uiso  ? H
   H65        1.0     0.361183     0.537051     0.732440    Uiso  ? H
   H66        1.0     0.433857     0.401500     0.868203    Uiso  ? H
   H67        1.0     0.447242     0.571740     0.894133    Uiso  ? H
   H68        1.0     0.356387     0.697844     0.920391    Uiso  ? H
   H69        1.0     0.285869     0.639058     0.835760    Uiso  ? H
   H70        1.0     0.421832     0.372616     0.970751    Uiso  ? H
   H71        1.0     0.435665     0.543314     0.997705    Uiso  ? H
   H72        1.0     0.347200     0.480227     0.950290    Uiso  ? H
   H73        1.0     0.832019     0.397478     0.178877    Uiso  ? H
   H74        1.0     0.778239     0.372317     0.062787    Uiso  ? H
   H75        1.0     0.927500     0.674968     0.145509    Uiso  ? H
   H76        1.0     0.913963     0.677575     0.218955    Uiso  ? H
   H77        1.0     0.849528     0.632283     0.984306    Uiso  ? H
   H78        1.0     0.779226     0.596785     0.940311    Uiso  ? H
   H79        1.0     0.827507     0.753623     0.069683    Uiso  ? H
   H80        1.0     0.802317     0.373905     0.970719    Uiso  ? H
   H81        1.0     0.872849     0.409255     0.015770    Uiso  ? H
   H82        1.0     0.946382     0.449486     0.172227    Uiso  ? H
   H83        1.0     0.929710     0.451203     0.242083    Uiso  ? H
   H84        1.0     0.870529     0.302918     0.120769    Uiso  ? H
   H85        1.0     0.766089     0.910995     0.800289    Uiso  ? H
   H86        1.0     0.823196     0.793671     0.855659    Uiso  ? H
   H87        1.0     0.867180     0.230666     0.816595    Uiso  ? H
   H88        1.0     0.795589     0.179415     0.732316    Uiso  ? H
   H89        1.0     0.860449     0.032717     0.732308    Uiso  ? H
   H90        1.0     0.931402     0.893166     0.866203    Uiso  ? H
   H91        1.0     0.947210     0.063149     0.894102    Uiso  ? H
   H92        1.0     0.858304     0.195187     0.922277    Uiso  ? H
   H93        1.0     0.786785     0.140547     0.837835    Uiso  ? H
   H94        1.0     0.920364     0.867453     0.969831    Uiso  ? H
   H95        1.0     0.935369     0.036822     0.998065    Uiso  ? H
   H96        1.0     0.846598     0.979163     0.950428    Uiso  ? H
   H97        1.0     0.332035     0.102511     0.678872    Uiso  ? H
   H98        1.0     0.278251     0.127677     0.562784    Uiso  ? H
   H99        1.0     0.427528     0.825062     0.645519    Uiso  ? H
   H100       1.0     0.413984     0.822458     0.718956    Uiso  ? H
   H101       1.0     0.349565     0.867741     0.484317    Uiso  ? H
   H102       1.0     0.279256     0.903209     0.440302    Uiso  ? H
   H103       1.0     0.327538     0.746381     0.569683    Uiso  ? H
   H104       1.0     0.302324     0.126099     0.470704    Uiso  ? H
   H105       1.0     0.372860     0.090781     0.515758    Uiso  ? H
   H106       1.0     0.446392     0.050546     0.672207    Uiso  ? H
   H107       1.0     0.429728     0.048835     0.742073    Uiso  ? H
   H108       1.0     0.370535     0.197102     0.620754    Uiso  ? H
   H109       1.0     0.266086     0.589028     0.300278    Uiso  ? H
   H110       1.0     0.323194     0.706345     0.355648    Uiso  ? H
   H111       1.0     0.367175     0.269345     0.316578    Uiso  ? H
   H112       1.0     0.295584     0.320606     0.232299    Uiso  ? H
   H113       1.0     0.360446     0.467304     0.232294    Uiso  ? H
   H114       1.0     0.431397     0.606847     0.366191    Uiso  ? H
   H115       1.0     0.447208     0.436864     0.394089    Uiso  ? H
   H116       1.0     0.358299     0.304826     0.422260    Uiso  ? H
   H117       1.0     0.286780     0.359469     0.337818    Uiso  ? H
   H118       1.0     0.420361     0.632551     0.469820    Uiso  ? H
   H119       1.0     0.435364     0.463180     0.498050    Uiso  ? H
   H120       1.0     0.346592     0.520849     0.450410    Uiso  ? H
   H121       1.0     0.831217     0.597237     0.678108    Uiso  ? H
   H122       1.0     0.778719     0.630079     0.562727    Uiso  ? H
   H123       1.0     0.930204     0.322188     0.656535    Uiso  ? H
   H124       1.0     0.911321     0.325034     0.722952    Uiso  ? H
   H125       1.0     0.858120     0.366729     0.494860    Uiso  ? H
   H126       1.0     0.785740     0.400356     0.442005    Uiso  ? H
   H127       1.0     0.829111     0.246148     0.570749    Uiso  ? H
   H128       1.0     0.806422     0.624030     0.472896    Uiso  ? H
   H129       1.0     0.878093     0.590810     0.522905    Uiso  ? H
   H130       1.0     0.948065     0.550273     0.679111    Uiso  ? H
   H131       1.0     0.928670     0.551166     0.745718    Uiso  ? H
   H132       1.0     0.871275     0.697295     0.623059    Uiso  ? H
   H133       1.0     0.767395     0.090660     0.300137    Uiso  ? H
   H134       1.0     0.825344     0.205228     0.356703    Uiso  ? H
   H135       1.0     0.867604     0.767179     0.317318    Uiso  ? H
   H136       1.0     0.795787     0.817672     0.231809    Uiso  ? H
   H137       1.0     0.861212     0.962937     0.232483    Uiso  ? H
   H138       1.0     0.933902     0.098434     0.368267    Uiso  ? H
   H139       1.0     0.947265     0.928183     0.394179    Uiso  ? H
   H140       1.0     0.856407     0.802122     0.420416    Uiso  ? H
   H141       1.0     0.785889     0.860928     0.335793    Uiso  ? H
   H142       1.0     0.921861     0.127337     0.470795    Uiso  ? H
   H143       1.0     0.935692     0.956639     0.497754    Uiso  ? H
   H144       1.0     0.847227     0.019744     0.450333    Uiso  ? H
   H145       1.0     0.668784     0.097246     0.821904    Uiso  ? H
   H146       1.0     0.721280     0.130080     0.937286    Uiso  ? H
   H147       1.0     0.569792     0.822201     0.843468    Uiso  ? H
   H148       1.0     0.588677     0.825044     0.777052    Uiso  ? H
   H149       1.0     0.641875     0.866727     0.005142    Uiso  ? H
   H150       1.0     0.714255     0.900353     0.058001    Uiso  ? H
   H151       1.0     0.670885     0.746151     0.929254    Uiso  ? H
   H152       1.0     0.693572     0.124028     0.027112    Uiso  ? H
   H153       1.0     0.621900     0.090806     0.977096    Uiso  ? H
   H154       1.0     0.551931     0.050286     0.820888    Uiso  ? H
   H155       1.0     0.571332     0.051179     0.754288    Uiso  ? H
   H156       1.0     0.628724     0.197300     0.876949    Uiso  ? H
   H157       1.0     0.732596     0.590686     0.199857    Uiso  ? H
   H158       1.0     0.674640     0.705238     0.143271    Uiso  ? H
   H159       1.0     0.632410     0.267170     0.182692    Uiso  ? H
   H160       1.0     0.704221     0.317706     0.268196    Uiso  ? H
   H161       1.0     0.638772     0.462938     0.267491    Uiso  ? H
   H162       1.0     0.566072     0.598389     0.131686    Uiso  ? H
   H163       1.0     0.552732     0.428132     0.105789    Uiso  ? H
   H164       1.0     0.643601     0.302122     0.079587    Uiso  ? H
   H165       1.0     0.714116     0.360941     0.164207    Uiso  ? H
   H166       1.0     0.578133     0.627324     0.029184    Uiso  ? H
   H167       1.0     0.564309     0.456626     0.002222    Uiso  ? H
   H168       1.0     0.652776     0.519745     0.049662    Uiso  ? H
   H169       1.0     0.167968     0.602523     0.821135    Uiso  ? H
   H170       1.0     0.221750     0.627689     0.937223    Uiso  ? H
   H171       1.0     0.072483     0.325055     0.854498    Uiso  ? H
   H172       1.0     0.086025     0.322454     0.781060    Uiso  ? H
   H173       1.0     0.150446     0.367740     0.015698    Uiso  ? H
   H174       1.0     0.220754     0.403218     0.059711    Uiso  ? H
   H175       1.0     0.172475     0.246388     0.930333    Uiso  ? H
   H176       1.0     0.197677     0.626106     0.029303    Uiso  ? H
   H177       1.0     0.127142     0.590774     0.984249    Uiso  ? H
   H178       1.0     0.053612     0.550536     0.827802    Uiso  ? H
   H179       1.0     0.070275     0.548828     0.757936    Uiso  ? H
   H180       1.0     0.129465     0.697102     0.879251    Uiso  ? H
   H181       1.0     0.233914     0.089019     0.199714    Uiso  ? H
   H182       1.0     0.176805     0.206336     0.144340    Uiso  ? H
   H183       1.0     0.132828     0.769341     0.183419    Uiso  ? H
   H184       1.0     0.204418     0.820603     0.267698    Uiso  ? H
   H185       1.0     0.139555     0.967300     0.267698    Uiso  ? H
   H186       1.0     0.068600     0.106836     0.133797    Uiso  ? H
   H187       1.0     0.052794     0.936852     0.105904    Uiso  ? H
   H188       1.0     0.141705     0.804817     0.077738    Uiso  ? H
   H189       1.0     0.213223     0.859462     0.162179    Uiso  ? H
   H190       1.0     0.079638     0.132543     0.030170    Uiso  ? H
   H191       1.0     0.064638     0.963172     0.001944    Uiso  ? H
   H192       1.0     0.153408     0.020841     0.049581    Uiso  ? H
   N1         1.0     0.638739     0.904190     0.391953    Uiso  ? N
   N2         1.0     0.651489     0.490993     0.599472    Uiso  ? N
   N3         1.0     0.480550     0.210605     0.584562    Uiso  ? N
   N4         1.0     0.639246     0.581894     0.424934    Uiso  ? N
   N5         1.0     0.499529     0.208531     0.392900    Uiso  ? N
   N6         1.0     0.628342     0.033166     0.638427    Uiso  ? N
   N7         1.0     0.137513     0.404216     0.389473    Uiso  ? N
   N8         1.0     0.150846     0.992910     0.599584    Uiso  ? N
   N9         1.0     0.982751     0.710996     0.586859    Uiso  ? N
   N10        1.0     0.141138     0.082243     0.427691    Uiso  ? N
   N11        1.0     1.000744     0.709452     0.394151    Uiso  ? N
   N12        1.0     0.128749     0.523163     0.637675    Uiso  ? N
   N13        1.0     0.362495     0.904223     0.110528    Uiso  ? N
   N14        1.0     0.349152     0.492901     0.900410    Uiso  ? N
   N15        1.0     0.517254     0.210989     0.913146    Uiso  ? N
   N16        1.0     0.358862     0.582244     0.072306    Uiso  ? N
   N17        1.0     0.499257     0.209454     0.105851    Uiso  ? N
   N18        1.0     0.371250     0.023164     0.862330    Uiso  ? N
   N19        1.0     0.861259     0.404190     0.108046    Uiso  ? N
   N20        1.0     0.848514     0.990998     0.900532    Uiso  ? N
   N21        1.0     0.019455     0.710616     0.915440    Uiso  ? N
   N22        1.0     0.860757     0.081894     0.075070    Uiso  ? N
   N23        1.0     0.000471     0.708525     0.107102    Uiso  ? N
   N24        1.0     0.871655     0.533191     0.861572    Uiso  ? N
   N25        1.0     0.361270     0.095828     0.608034    Uiso  ? N
   N26        1.0     0.348509     0.509014     0.400516    Uiso  ? N
   N27        1.0     0.519459     0.789388     0.415428    Uiso  ? N
   N28        1.0     0.360759     0.418122     0.575063    Uiso  ? N
   N29        1.0     0.500475     0.791469     0.607101    Uiso  ? N
   N30        1.0     0.371665     0.966844     0.361569    Uiso  ? N
   N31        1.0     0.862490     0.595779     0.610536    Uiso  ? N
   N32        1.0     0.849180     0.007068     0.400453    Uiso  ? N
   N33        1.0     0.017249     0.288996     0.413147    Uiso  ? N
   N34        1.0     0.858868     0.917749     0.572320    Uiso  ? N
   N35        1.0    -0.000745     0.290540     0.605852    Uiso  ? N
   N36        1.0     0.871245     0.476831     0.362327    Uiso  ? N
   N37        1.0     0.637507     0.095784     0.889472    Uiso  ? N
   N38        1.0     0.650819     0.507069     0.099535    Uiso  ? N
   N39        1.0     0.482745     0.788996     0.086851    Uiso  ? N
   N40        1.0     0.641136     0.417754     0.927675    Uiso  ? N
   N41        1.0     0.500739     0.790540     0.894149    Uiso  ? N
   N42        1.0     0.628752     0.976782     0.137678    Uiso  ? N
   N43        1.0     0.138732     0.595829     0.891973    Uiso  ? N
   N44        1.0     0.151492     0.009006     0.099477    Uiso  ? N
   N45        1.0     0.980539     0.289399     0.084560    Uiso  ? N
   N46        1.0     0.139248     0.918130     0.924944    Uiso  ? N
   N47        1.0     0.999528     0.291480     0.892901    Uiso  ? N
   N48        1.0     0.128335     0.466838     0.138430    Uiso  ? N
   Cl1        1.0     0.743444     0.144059     0.401433    Uiso  ? Cl
   Cl2        1.0     0.700359     0.294284     0.809242    Uiso  ? Cl
   Cl3        1.0     0.242709     0.645578     0.401603    Uiso  ? Cl
   Cl4        1.0     0.202773     0.802424     0.813812    Uiso  ? Cl
   Cl5        1.0     0.257302     0.145587     0.098405    Uiso  ? Cl
   Cl6        1.0     0.297233     0.302421     0.686187    Uiso  ? Cl
   Cl7        1.0     0.756554     0.644052     0.098574    Uiso  ? Cl
   Cl8        1.0     0.799646     0.794295     0.690764    Uiso  ? Cl
   Cl9        1.0     0.256571     0.855935     0.598551    Uiso  ? Cl
   Cl10       1.0     0.299647     0.705730     0.190755    Uiso  ? Cl
   Cl11       1.0     0.757291     0.354433     0.598404    Uiso  ? Cl
   Cl12       1.0     0.797233     0.197532     0.186204    Uiso  ? Cl
   Cl13       1.0     0.742705     0.854434     0.901597    Uiso  ? Cl
   Cl14       1.0     0.702765     0.697513     0.313794    Uiso  ? Cl
   Cl15       1.0     0.243431     0.355946     0.901444    Uiso  ? Cl
   Cl16       1.0     0.200354     0.205728     0.309234    Uiso  ? Cl
   O1         1.0     0.612053     0.635886     0.349145    Uiso  ? O
   O2         1.0     0.505538     0.087692     0.383320    Uiso  ? O
   O3         1.0     0.601762     0.958006     0.652037    Uiso  ? O
   O4         1.0     0.681797     0.638706     0.493694    Uiso  ? O
   O5         1.0     0.622534     0.471408     0.430294    Uiso  ? O
   O6         1.0     0.501532     0.297747     0.352364    Uiso  ? O
   O7         1.0     0.597481     0.104457     0.568324    Uiso  ? O
   O8         1.0     0.470957     0.297575     0.617209    Uiso  ? O
   O9         1.0     0.681326     0.037243     0.690052    Uiso  ? O
   O10        1.0     0.530990     0.175898     0.620254    Uiso  ? O
   O11        1.0     0.439436     0.151936     0.512704    Uiso  ? O
   O12        1.0     0.491421     0.234494     0.446373    Uiso  ? O
   O13        1.0     0.114617     0.134118     0.351518    Uiso  ? O
   O14        1.0     0.182730     0.141115     0.496458    Uiso  ? O
   O15        1.0     0.989070     0.590160     0.609398    Uiso  ? O
   O16        1.0     0.124677     0.971511     0.433391    Uiso  ? O
   O17        1.0     0.096878     0.593614     0.642792    Uiso  ? O
   O18        1.0     1.000353     0.799982     0.351860    Uiso  ? O
   O19        1.0     0.954676     0.654759     0.366789    Uiso  ? O
   O20        1.0     0.970716     0.796051     0.617212    Uiso  ? O
   O21        1.0     0.988495     0.740125     0.531140    Uiso  ? O
   O22        1.0     0.181482     0.537209     0.689856    Uiso  ? O
   O23        1.0     0.103520     0.437419     0.575492    Uiso  ? O
   O24        1.0     0.047289     0.667635     0.467343    Uiso  ? O
   O25        1.0     0.385384     0.634118     0.148479    Uiso  ? O
   O26        1.0     0.317270     0.641120     0.003539    Uiso  ? O
   O27        1.0     0.510929     0.090154     0.890604    Uiso  ? O
   O28        1.0     0.375320     0.471508     0.066606    Uiso  ? O
   O29        1.0     0.403120     0.093630     0.857218    Uiso  ? O
   O30        1.0     0.499648     0.299985     0.148141    Uiso  ? O
   O31        1.0     0.545325     0.154763     0.133211    Uiso  ? O
   O32        1.0     0.529298     0.296033     0.882799    Uiso  ? O
   O33        1.0     0.511509     0.240128     0.968863    Uiso  ? O
   O34        1.0     0.318516     0.037199     0.810144    Uiso  ? O
   O35        1.0     0.396480     0.937418     0.924512    Uiso  ? O
   O36        1.0     0.452712     0.167634     0.032662    Uiso  ? O
   O37        1.0     0.887950     0.135894     0.150856    Uiso  ? O
   O38        1.0     0.994460     0.587685     0.116678    Uiso  ? O
   O39        1.0     0.898237     0.458048     0.847955    Uiso  ? O
   O40        1.0     0.818205     0.138707     0.006309    Uiso  ? O
   O41        1.0     0.877467     0.971400     0.069716    Uiso  ? O
   O42        1.0     0.998470     0.797738     0.147641    Uiso  ? O
   O43        1.0     0.902516     0.604478     0.931676    Uiso  ? O
   O44        1.0     0.029047     0.797580     0.882789    Uiso  ? O
   O45        1.0     0.818672     0.537257     0.809951    Uiso  ? O
   O46        1.0     0.969015     0.675906     0.879746    Uiso  ? O
   O47        1.0     0.060569     0.651955     0.987304    Uiso  ? O
   O48        1.0     0.008578     0.734492     0.053628    Uiso  ? O
   O49        1.0     0.387953     0.364121     0.650849    Uiso  ? O
   O50        1.0     0.494467     0.912307     0.616681    Uiso  ? O
   O51        1.0     0.398241     0.041995     0.347946    Uiso  ? O
   O52        1.0     0.318210     0.361305     0.506303    Uiso  ? O
   O53        1.0     0.377467     0.528620     0.569709    Uiso  ? O
   O54        1.0     0.498477     0.702254     0.647644    Uiso  ? O
   O55        1.0     0.402531     0.895557     0.431675    Uiso  ? O
   O56        1.0     0.529055     0.702412     0.382788    Uiso  ? O
   O57        1.0     0.318682     0.962769     0.309953    Uiso  ? O
   O58        1.0     0.469019     0.824104     0.379730    Uiso  ? O
   O59        1.0     0.560570     0.848054     0.487288    Uiso  ? O
   O60        1.0     0.508575     0.765502     0.553620    Uiso  ? O
   O61        1.0     0.885392     0.865875     0.648494    Uiso  ? O
   O62        1.0     0.817271     0.858882     0.503555    Uiso  ? O
   O63        1.0     0.010929     0.409833     0.390605    Uiso  ? O
   O64        1.0     0.875331     0.028475     0.566617    Uiso  ? O
   O65        1.0     0.903110     0.406367     0.357204    Uiso  ? O
   O66        1.0    -0.000358     0.200012     0.648140    Uiso  ? O
   O67        1.0     0.045324     0.345231     0.633218    Uiso  ? O
   O68        1.0     0.029287     0.203936     0.382800    Uiso  ? O
   O69        1.0     0.011505     0.259872     0.468865    Uiso  ? O
   O70        1.0     0.818510     0.462796     0.310149    Uiso  ? O
   O71        1.0     0.896479     0.562576     0.424509    Uiso  ? O
   O72        1.0     0.952712     0.332359     0.532659    Uiso  ? O
   O73        1.0     0.614614     0.365881     0.851502    Uiso  ? O
   O74        1.0     0.682729     0.358876     0.996442    Uiso  ? O
   O75        1.0     0.489070     0.909832     0.109395    Uiso  ? O
   O76        1.0     0.624677     0.528493     0.933377    Uiso  ? O
   O77        1.0     0.596886     0.906326     0.142802    Uiso  ? O
   O78        1.0     0.500351     0.700016     0.851857    Uiso  ? O
   O79        1.0     0.454672     0.845232     0.866789    Uiso  ? O
   O80        1.0     0.470706     0.703943     0.117200    Uiso  ? O
   O81        1.0     0.488484     0.759867     0.031129    Uiso  ? O
   O82        1.0     0.681486     0.962720     0.189845    Uiso  ? O
   O83        1.0     0.603521     0.062541     0.075503    Uiso  ? O
   O84        1.0     0.547283     0.832354     0.967343    Uiso  ? O
   O85        1.0     0.112056     0.864132     0.849158    Uiso  ? O
   O86        1.0     0.005536     0.412319     0.883321    Uiso  ? O
   O87        1.0     0.101759     0.541984     0.152057    Uiso  ? O
   O88        1.0     0.181799     0.861313     0.993705    Uiso  ? O
   O89        1.0     0.122541     0.028625     0.930297    Uiso  ? O
   O90        1.0     0.001533     0.202266     0.852364    Uiso  ? O
   O91        1.0     0.097468     0.395559     0.068322    Uiso  ? O
   O92        1.0     0.970944     0.202421     0.117200    Uiso  ? O
   O93        1.0     0.181318     0.462763     0.190043    Uiso  ? O
   O94        1.0     0.030978     0.324102     0.120251    Uiso  ? O
   O95        1.0     0.939427     0.348080     0.012706    Uiso  ? O
   O96        1.0     0.991422     0.265512     0.946375    Uiso  ? O
   Rb1        1.0     0.498687     0.501711     0.249109    Uiso  ? Rb
   Rb2        1.0     0.001314     0.001713     0.250892    Uiso  ? Rb
   Rb3        1.0     0.501312     0.498295     0.750887    Uiso  ? Rb
   Rb4        1.0     0.998690     0.998294     0.749117    Uiso  ? Rb
   Sm1        1.0     0.500004    -0.000002     0.499995    Uiso  ? Sm
   Sm2        1.0     0.999999     0.499992     0.500001    Uiso  ? Sm
   Sm3        1.0     0.499999     0.999988     0.000004    Uiso  ? Sm
   Sm4        1.0    -0.000006     0.500013    -0.000001    Uiso  ? Sm
