data_mo_r3cq_smrb_0m_a
_audit_creation_date               2025-08-22
_audit_creation_method
;
Olex2 1.5
(compiled 2025.05.31 svn.r86d253d1 for OlexSys, GUI svn.r7254)
;
_shelx_SHELXL_version_number       '2019/3'
_audit_contact_author_address      ?
_audit_contact_author_email        ?
_audit_contact_author_name         ''
_audit_contact_author_phone        ?
_publ_contact_author_id_orcid      ?
_publ_section_references
;
Dolomanov, O.V., Bourhis, L.J., Gildea, R.J, Howard, J.A.K. & Puschmann, H.
 (2009), J. Appl. Cryst. 42, 339-341.

Sheldrick, G.M. (2015). Acta Cryst. C71, 3-8.
;
_chemical_name_common              ?
_chemical_name_systematic          ?
_chemical_formula_moiety           'N8 O24 Rb Sm, 4(C7 Cl N)'
_chemical_formula_sum              'C28 Cl4 N12 O24 Rb Sm'
_chemical_formula_weight           1266.02
_chemical_absolute_configuration   rm
_chemical_melting_point            ?
loop_
  _atom_type_symbol
  _atom_type_description
  _atom_type_scat_dispersion_real
  _atom_type_scat_dispersion_imag
  _atom_type_scat_source
 'C' 'C' 0.0033 0.0016 'International Tables Vol C Tables 4.2.6.8 and 6.1.1.4'
 'Cl' 'Cl' 0.1484 0.1585 'International Tables Vol C Tables 4.2.6.8 and 6.1.1.4'
 'N' 'N' 0.0061 0.0033 'International Tables Vol C Tables 4.2.6.8 and 6.1.1.4'
 'O' 'O' 0.0106 0.0060 'International Tables Vol C Tables 4.2.6.8 and 6.1.1.4'
 'Rb' 'Rb' -0.9393 2.9676
 'International Tables Vol C Tables 4.2.6.8 and 6.1.1.4'
 'Sm' 'Sm' -0.1638 3.4418
 'International Tables Vol C Tables 4.2.6.8 and 6.1.1.4'

_shelx_space_group_comment
;
The symmetry employed for this shelxl refinement is uniquely defined
by the following loop, which should always be used as a source of
symmetry information in preference to the above space-group names.
They are only intended as comments.
;
_space_group_crystal_system        'orthorhombic'
_space_group_IT_number             21
_space_group_name_H-M_alt          'C 2 2 2'
_space_group_name_Hall             'C 2 2'
loop_
  _space_group_symop_operation_xyz
 'x, y, z'
 '-x, -y, z'
 '-x, y, -z'
 'x, -y, -z'
 'x+1/2, y+1/2, z'
 '-x+1/2, -y+1/2, z'
 '-x+1/2, y+1/2, -z'
 'x+1/2, -y+1/2, -z'

_cell_length_a                     10.078(3)
_cell_length_b                     24.530(8)
_cell_length_c                     10.099(3)
_cell_angle_alpha                  90
_cell_angle_beta                   90
_cell_angle_gamma                  90
_cell_volume                       2496.6(13)
_cell_formula_units_Z              2
_cell_measurement_reflns_used      4339
_cell_measurement_temperature      287.00
_cell_measurement_theta_max        25.59
_cell_measurement_theta_min        2.99
_shelx_estimated_absorpt_T_max     ?
_shelx_estimated_absorpt_T_min     ?
_exptl_absorpt_coefficient_mu      2.447
_exptl_absorpt_correction_T_max    0.7454
_exptl_absorpt_correction_T_min    0.5832
_exptl_absorpt_correction_type     none
_exptl_absorpt_process_details
;
SADABS-2016/2 (Bruker,2016/2) was used for absorption correction.
wR2(int) was 0.0959 before and 0.0643 after correction.
The Ratio of minimum to maximum transmission is 0.7824.
The \l/2 correction factor is Not present.
;
_exptl_absorpt_special_details     ?
_exptl_crystal_colour              colourless
_exptl_crystal_colour_primary      colourless
_exptl_crystal_density_diffrn      1.684
_exptl_crystal_density_meas        ?
_exptl_crystal_density_method      ?
_exptl_crystal_description         block
_exptl_crystal_F_000               1222
_exptl_crystal_size_max            0.11
_exptl_crystal_size_mid            0.1
_exptl_crystal_size_min            0.1
_exptl_transmission_factor_max     ?
_exptl_transmission_factor_min     ?
_diffrn_reflns_av_R_equivalents    0.0954
_diffrn_reflns_av_unetI/netI       0.0484
_diffrn_reflns_Laue_measured_fraction_full  0.999
_diffrn_reflns_Laue_measured_fraction_max  0.987
_diffrn_reflns_limit_h_max         12
_diffrn_reflns_limit_h_min         -12
_diffrn_reflns_limit_k_max         30
_diffrn_reflns_limit_k_min         -30
_diffrn_reflns_limit_l_max         12
_diffrn_reflns_limit_l_min         -12
_diffrn_reflns_number              17439
_diffrn_reflns_point_group_measured_fraction_full  1.000
_diffrn_reflns_point_group_measured_fraction_max  0.984
_diffrn_reflns_theta_full          25.242
_diffrn_reflns_theta_max           26.482
_diffrn_reflns_theta_min           2.016
_diffrn_ambient_temperature        287.00
_diffrn_detector_area_resol_mean   ?
_diffrn_measured_fraction_theta_full  0.999
_diffrn_measured_fraction_theta_max  0.987
_diffrn_measurement_device_type    'Bruker APEX-II CCD'
_diffrn_measurement_method         '\f and \w scans'
_diffrn_radiation_type             MoK\a
_diffrn_radiation_wavelength       0.71073
_diffrn_source                     ?
_diffrn_source_current             1.4
_diffrn_source_power               0.07
_diffrn_source_voltage             50.0
_diffrn_standards_number           0
_reflns_Friedel_coverage           0.748
_reflns_Friedel_fraction_full      1.000
_reflns_Friedel_fraction_max       0.980
_reflns_number_gt                  2056
_reflns_number_total               2568
_reflns_special_details
;
 Reflections were merged by SHELXL according to the crystal
 class for the calculation of statistics and refinement.
 
 _reflns_Friedel_fraction is defined as the number of unique
 Friedel pairs measured divided by the number that would be
 possible theoretically, ignoring centric projections and
 systematic absences. Completness statistics refer to single and
 composite reflections containing twin component 1 only.
;
_reflns_threshold_expression       'I > 2\s(I)'
_computing_cell_refinement         'SAINT V8.40B (?, 2016)'
_computing_data_collection         ?
_computing_data_reduction          'SAINT V8.40B (?, 2016)'
_computing_molecular_graphics      'Olex2 1.5 (Dolomanov et al., 2009)'
_computing_publication_material    'Olex2 1.5 (Dolomanov et al., 2009)'
_computing_structure_refinement    'SHELXL 2019/3 (Sheldrick, 2015)'
_computing_structure_solution      'SHELXT 2018/2 (Sheldrick, 2018)'
_refine_diff_density_max           2.036
_refine_diff_density_min           -0.602
_refine_diff_density_rms           0.167
_refine_ls_abs_structure_details
;
 Refined as an inversion twin.
;
_refine_ls_abs_structure_Flack     0.51(5)
_refine_ls_extinction_coef         .
_refine_ls_extinction_method       none
_refine_ls_goodness_of_fit_ref     1.076
_refine_ls_hydrogen_treatment      undef
_refine_ls_matrix_type             full
_refine_ls_number_parameters       208
_refine_ls_number_reflns           2568
_refine_ls_number_restraints       220
_refine_ls_R_factor_all            0.0749
_refine_ls_R_factor_gt             0.0594
_refine_ls_restrained_S_all        1.100
_refine_ls_shift/su_max            0.002
_refine_ls_shift/su_mean           0.000
_refine_ls_structure_factor_coef   Fsqd
_refine_ls_weighting_details      
 'w=1/[\s^2^(Fo^2^)+(0.1119P)^2^] where P=(Fo^2^+2Fc^2^)/3'
_refine_ls_weighting_scheme        calc
_refine_ls_wR_factor_gt            0.1561
_refine_ls_wR_factor_ref           0.1657
_refine_special_details
;
 Refined as a 2-component inversion twin.
;
_olex2_refinement_description
;
1. Twinned data refinement
 Scales: 0.48772
 0.51228
2. Shared sites
{C4, N4}
{C2, N2}
3. Restrained distances
 O24-N003
 1.3 with sigma of 0.01
 O20-N28
 1.3 with sigma of 0.01
 C2-C1 = C3-C1_$1 = C3-C2 = C2-C1 = C3-C2 = C3_$1-C1
 1.5 with sigma of 0.01
 C8-C2
 1.5 with sigma of 0.01
 C8-C8_$1
 1.5 with sigma of 0.01
 Cl1-C1
 1.75 with sigma of 0.01
 C6-C4 = C7-C4
 1.5 with sigma of 0.01
 C7_$3-C6 = C7-C6_$3 = C7_$3-C4_$3 = C6_$3-C4_$3
 1.5 with sigma of 0.01
 C9_$3-C9
 1.5 with sigma of 0.01
 C9-C4 = C9_$3-C4_$3
 1.5 with sigma of 0.01
 C1-C3
 2.4 with sigma of 0.04
 C2-C3_$1
 2.4 with sigma of 0.04
 C1-C2_$1
 2.4 with sigma of 0.04
 C3-C1
 2.4 with sigma of 0.04
 C2_$1-C3
 2.4 with sigma of 0.04
 C2-C2_$1
 2.6 with sigma of 0.04
 C7-C6
 2.4 with sigma of 0.04
 C4-C7_$3
 2.4 with sigma of 0.04
 C4_$3-C6
 2.4 with sigma of 0.04
 C4_$3-C7
 2.4 with sigma of 0.04
 C6_$3-C4
 2.4 with sigma of 0.04
 C4_$3-C4
 2.6 with sigma of 0.04
 C9-C7
 2.4 with sigma of 0.01
 C4-C6_$3
 2.4 with sigma of 0.01
 C7-C4_$3
 2.4 with sigma of 0.01
 C6_$3-C9_$3
 2.4 with sigma of 0.01
 C6-C7
 2.4 with sigma of 0.01
 C7_$3-C4
 2.4 with sigma of 0.01
 C7_$3-C6_$3
 2.4 with sigma of 0.01
 C9_$3-C7_$3
 2.4 with sigma of 0.01
4. Uiso/Uaniso restraints and constraints
Rb02 \\sim Sm01 \\sim O3 \\sim O1 \\sim O24 \\sim O5 \\sim O2 \\sim N003 \\sim
N008 \\sim O4 \\sim O \\sim O11 \\sim O12 \\sim N28 \\sim O20: within 2A with
sigma of 0.01 and sigma for terminal atoms of 0.02 within 2A
C1 \\sim C2 \\sim C3 \\sim C8 \\sim Cl1: within 2A with sigma of 0.01 and sigma
for terminal atoms of 0.02 within 2A
C4 \\sim C6 \\sim C7 \\sim C9 \\sim Cl2: within 2A with sigma of 0.01 and sigma
for terminal atoms of 0.02 within 2A
Uanis(N28) \\sim Ueq, Uanis(O11) \\sim Ueq, Uanis(O12) \\sim Ueq, Uanis(O20)
\\sim Ueq: with sigma of 0.01 and sigma for terminal atoms of 0.02
Uanis(C4) = Uanis(N4)
Uanis(C2) = Uanis(N2)
5. Others
 Sof(O3)=Sof(O24)=1-FVAR(1)
 Sof(O2)=Sof(O5)=FVAR(1)
 Fixed Sof: O11(0.5) O12(0.5) N28(0.5) O20(0.5) C2(0.5) Cl1(0.5) C4(0.5)
 Cl2(0.5) N4(0.5) N2(0.5)
;
_atom_sites_solution_hydrogens     .
_atom_sites_solution_primary       ?
_atom_sites_solution_secondary     ?
loop_
  _atom_site_label
  _atom_site_type_symbol
  _atom_site_fract_x
  _atom_site_fract_y
  _atom_site_fract_z
  _atom_site_U_iso_or_equiv
  _atom_site_adp_type
  _atom_site_occupancy
  _atom_site_site_symmetry_order
  _atom_site_calc_flag
  _atom_site_refinement_flags_posn
  _atom_site_refinement_flags_adp
  _atom_site_refinement_flags_occupancy
  _atom_site_disorder_assembly
  _atom_site_disorder_group
 Sm01 Sm 1.000000 0.500000 1.000000 0.04369(9) Uani 1 4 d S T P . .
 Rb02 Rb 0.500000 0.500000 0.500000 0.0546(2) Uani 1 4 d S T P . .
 N003 N 0.7883(4) 0.5001(3) 0.7880(3) 0.0758(10) Uani 1 1 d D U . . .
 O1 O 0.9252(5) 0.59614(18) 0.9245(4) 0.0876(13) Uani 1 1 d . U . . .
 O O 1.000000 0.6719(3) 1.000000 0.152(3) Uani 1 2 d S TU P . .
 O3 O 0.8320(8) 0.4598(4) 0.8304(8) 0.0809(16) Uani 0.517(3) 1 d . U P A 2
 O4 O 0.7032(4) 0.4881(2) 0.7019(4) 0.1012(14) Uani 1 1 d . U . . .
 N008 N 1.000000 0.6220(2) 1.000000 0.0929(18) Uani 1 2 d S TU P . .
 O2 O 0.9070(6) 0.5051(5) 0.7608(5) 0.0712(15) Uani 0.483(3) 1 d . U P A 1
 O5 O 0.7609(5) 0.5009(6) 0.9099(5) 0.0765(15) Uani 0.483(3) 1 d . U P A 1
 O24 O 0.8379(7) 0.5451(3) 0.8370(7) 0.0775(16) Uani 0.517(3) 1 d D U P A 2
 O11 O 0.5300(16) 0.6045(6) 0.6374(15) 0.178(2) Uani 0.5 1 d . U P . .
 O12 O 0.6177(14) 0.6111(6) 0.5239(17) 0.172(2) Uani 0.5 1 d . U P . .
 N28 N 0.5331(8) 0.6204(5) 0.5742(15) 0.179(2) Uani 0.5 1 d D U P . .
 O20 O 0.4184(7) 0.6455(5) 0.5786(14) 0.189(2) Uani 0.5 1 d D U P . .
 C2 C 0.4900(4) 0.6455(2) 0.8781(6) 0.178(2) Uani 0.5 1 d D U P B 3
 C3 C 0.3575(5) 0.6561(3) 0.9428(5) 0.179(3) Uani 1 1 d D U . . .
 C1 C 0.5942(5) 0.6835(2) 0.9323(5) 0.171(3) Uani 1 1 d D U . . .
 C8 C 0.5354(6) 0.5910(3) 0.9347(4) 0.182(3) Uani 1 1 d D U . . .
 Cl1 Cl 0.6854(6) 0.7230(2) 0.8230(5) 0.147(2) Uani 0.5 1 d D U P B -1
 C4 C 0.8753(4) 0.64360(16) 0.4820(4) 0.204(2) Uani 0.5 1 d D U P C 3
 C6 C 0.9523(4) 0.6589(3) 0.3604(3) 0.199(3) Uani 1 1 d D U . . .
 C7 C 0.9198(4) 0.68303(16) 0.5884(4) 0.212(3) Uani 1 1 d D U . . .
 C9 C 0.9303(4) 0.58930(14) 0.5260(6) 0.211(3) Uani 1 1 d D U . . .
 Cl2 Cl 0.8370(10) 0.7255(4) 0.6721(9) 0.241(3) Uani 0.5 1 d . U P C -1
 N4 N 0.8753(4) 0.64360(16) 0.4820(4) 0.204(2) Uani 0.5 1 d . . P C 4
 N2 N 0.4900(4) 0.6455(2) 0.8781(6) 0.178(2) Uani 0.5 1 d . . P B 4

loop_
  _atom_site_aniso_label
  _atom_site_aniso_U_11
  _atom_site_aniso_U_22
  _atom_site_aniso_U_33
  _atom_site_aniso_U_23
  _atom_site_aniso_U_13
  _atom_site_aniso_U_12
 Sm01 0.03469(15) 0.0645(2) 0.03182(15) 0.000 0.000 0.000
 Rb02 0.0371(3) 0.0920(5) 0.0347(3) 0.000 0.000 0.000
 N003 0.0563(15) 0.120(2) 0.0515(15) 0.000(3) -0.0182(15) -0.006(3)
 O1 0.099(2) 0.079(2) 0.085(2) 0.011(2) -0.015(2) 0.008(2)
 O 0.194(6) 0.083(4) 0.180(6) 0.000 -0.040(10) 0.000
 O3 0.064(3) 0.119(3) 0.059(3) -0.007(3) -0.018(3) -0.016(3)
 O4 0.085(2) 0.139(4) 0.0801(19) 0.000(3) -0.0424(19) -0.002(3)
 N008 0.111(4) 0.063(3) 0.104(4) 0.000 -0.035(5) 0.000
 O2 0.056(2) 0.108(3) 0.050(2) 0.007(4) -0.008(2) -0.009(4)
 O5 0.055(2) 0.118(3) 0.056(3) 0.000(4) -0.004(2) -0.003(4)
 O24 0.069(3) 0.103(3) 0.061(3) 0.002(3) -0.012(3) -0.007(3)
 O11 0.175(4) 0.180(4) 0.179(4) -0.002(3) -0.020(3) -0.008(3)
 O12 0.170(4) 0.174(4) 0.170(4) -0.007(4) -0.020(4) -0.009(4)
 N28 0.177(4) 0.179(4) 0.181(4) -0.004(3) -0.016(3) -0.011(3)
 O20 0.187(4) 0.190(4) 0.191(4) 0.003(4) -0.018(4) -0.011(4)
 C2 0.134(3) 0.147(3) 0.253(4) -0.040(3) 0.012(4) 0.016(4)
 C3 0.114(5) 0.157(5) 0.265(7) -0.045(5) -0.017(5) 0.029(5)
 C1 0.140(5) 0.148(5) 0.227(6) -0.016(5) 0.015(5) -0.019(5)
 C8 0.143(6) 0.137(5) 0.266(7) -0.034(5) 0.019(5) 0.035(5)
 Cl1 0.146(4) 0.124(3) 0.171(4) 0.025(3) 0.031(4) -0.027(3)
 C4 0.245(4) 0.189(4) 0.177(4) 0.023(4) 0.056(4) -0.015(4)
 C6 0.248(7) 0.191(6) 0.157(5) 0.027(5) 0.038(6) -0.014(6)
 C7 0.243(6) 0.194(6) 0.198(6) -0.019(5) 0.057(6) 0.008(6)
 C9 0.255(6) 0.189(6) 0.188(6) 0.050(6) 0.059(6) -0.017(5)
 Cl2 0.257(7) 0.221(6) 0.244(5) -0.073(5) 0.048(6) 0.053(6)
 N4 0.245(4) 0.189(4) 0.177(4) 0.023(4) 0.056(4) -0.015(4)
 N2 0.134(3) 0.147(3) 0.253(4) -0.040(3) 0.012(4) 0.016(4)

_geom_special_details
;
 All esds (except the esd in the dihedral angle between two l.s. planes)
 are estimated using the full covariance matrix.  The cell esds are taken
 into account individually in the estimation of esds in distances, angles
 and torsion angles; correlations between esds in cell parameters are only
 used when they are defined by crystal symmetry.  An approximate (isotropic)
 treatment of cell esds is used for estimating esds involving l.s. planes.
;
loop_
  _geom_bond_atom_site_label_1
  _geom_bond_atom_site_label_2
  _geom_bond_distance
  _geom_bond_site_symmetry_2
  _geom_bond_publ_flag
 Sm01 O1 2.590(5) 3_757 ?
 Sm01 O1 2.590(4) 2_765 ?
 Sm01 O1 2.590(5) 4_567 ?
 Sm01 O1 2.590(4) . ?
 Sm01 O3 2.603(8) 3_757 ?
 Sm01 O3 2.603(8) 2_765 ?
 Sm01 O3 2.603(8) . ?
 Sm01 O3 2.603(8) 4_567 ?
 Sm01 O2 2.594(5) 2_765 ?
 Sm01 O2 2.594(5) 3_757 ?
 Sm01 O2 2.594(5) . ?
 Sm01 O2 2.594(5) 4_567 ?
 Sm01 O5 2.576(6) . ?
 Sm01 O5 2.576(6) 3_757 ?
 Sm01 O5 2.576(6) 4_567 ?
 Sm01 O5 2.576(6) 2_765 ?
 Sm01 O24 2.569(7) 3_757 ?
 Sm01 O24 2.569(7) 2_765 ?
 Sm01 O24 2.569(7) . ?
 Sm01 O24 2.569(7) 4_567 ?
 Rb02 O4 2.905(4) 2_665 ?
 Rb02 O4 2.905(4) 4_566 ?
 Rb02 O4 2.905(4) . ?
 Rb02 O4 2.905(4) 3_656 ?
 Rb02 O11 2.931(15) 4_566 ?
 Rb02 O11 2.931(15) 2_665 ?
 Rb02 O11 2.931(15) 3_656 ?
 Rb02 O11 2.931(15) . ?
 Rb02 O12 2.982(15) 2_665 ?
 Rb02 O12 2.983(15) . ?
 Rb02 O12 2.982(15) 4_566 ?
 Rb02 O12 2.982(15) 3_656 ?
 N003 O3 1.164(11) . ?
 N003 O4 1.256(6) . ?
 N003 O2 1.233(7) . ?
 N003 O5 1.263(6) . ?
 N003 O24 1.309(8) . ?
 O1 N008 1.245(5) . ?
 O N008 1.223(9) . ?
 O5 O5 1.820(11) 4_567 ?
 O11 O12 1.46(2) . ?
 O11 N28 0.75(2) . ?
 O12 N28 1.829(18) 3_656 ?
 O12 N28 1.019(18) . ?
 O12 O20 1.383(19) 3_656 ?
 N28 N28 1.64(3) 3_656 ?
 N28 O20 1.309(10) . ?
 N28 O20 1.731(18) 3_656 ?
 C2 C3 1.510(6) . ?
 C2 C1 1.507(6) . ?
 C2 C8 1.524(7) . ?
 C3 C1 1.509(6) 3_657 ?
 C3 N2 1.510(6) . ?
 C1 Cl1 1.734(7) . ?
 C1 N2 1.507(6) . ?
 C8 C8 1.500(8) 3_657 ?
 C8 N2 1.524(7) . ?
 C4 C6 1.500(5) . ?
 C4 C7 1.513(5) . ?
 C4 C9 1.509(5) . ?
 C6 C7 1.510(5) 3_756 ?
 C6 N4 1.500(5) . ?
 C7 Cl2 1.580(10) . ?
 C7 N4 1.513(5) . ?
 C9 C9 1.501(7) 3_756 ?
 C9 N4 1.509(5) . ?

loop_
  _geom_angle_atom_site_label_1
  _geom_angle_atom_site_label_2
  _geom_angle_atom_site_label_3
  _geom_angle
  _geom_angle_site_symmetry_1
  _geom_angle_site_symmetry_3
  _geom_angle_publ_flag
 O1 Sm01 O1 146.2(2) 3_757 2_765 ?
 O1 Sm01 O1 48.9(2) 2_765 4_567 ?
 O1 Sm01 O1 145.78(19) 3_757 4_567 ?
 O1 Sm01 O1 145.78(19) 2_765 . ?
 O1 Sm01 O1 48.9(2) 3_757 . ?
 O1 Sm01 O1 146.2(2) 4_567 . ?
 O1 Sm01 O3 70.1(2) 2_765 3_757 ?
 O1 Sm01 O3 136.7(2) 4_567 2_765 ?
 O1 Sm01 O3 69.5(2) 2_765 . ?
 O1 Sm01 O3 136.7(2) . 3_757 ?
 O1 Sm01 O3 69.5(2) 3_757 4_567 ?
 O1 Sm01 O3 136.7(2) 2_765 4_567 ?
 O1 Sm01 O3 87.8(2) 2_765 2_765 ?
 O1 Sm01 O3 87.8(2) 3_757 3_757 ?
 O1 Sm01 O3 69.5(2) . 2_765 ?
 O1 Sm01 O3 70.1(2) 3_757 2_765 ?
 O1 Sm01 O3 136.7(2) 3_757 . ?
 O1 Sm01 O3 87.8(2) 4_567 4_567 ?
 O1 Sm01 O3 70.1(2) 4_567 . ?
 O1 Sm01 O3 69.5(2) 4_567 3_757 ?
 O1 Sm01 O3 87.8(2) . . ?
 O1 Sm01 O3 70.1(2) . 4_567 ?
 O1 Sm01 O2 65.0(3) . . ?
 O1 Sm01 O2 82.8(3) 2_765 . ?
 O1 Sm01 O2 65.0(3) 2_765 2_765 ?
 O1 Sm01 O2 109.6(3) 3_757 . ?
 O1 Sm01 O2 102.3(3) . 4_567 ?
 O1 Sm01 O2 102.3(3) 4_567 . ?
 O1 Sm01 O2 65.0(3) 4_567 4_567 ?
 O1 Sm01 O2 65.0(3) 3_757 3_757 ?
 O1 Sm01 O2 109.6(3) . 3_757 ?
 O1 Sm01 O2 109.6(3) 2_765 4_567 ?
 O1 Sm01 O2 102.3(3) 3_757 2_765 ?
 O1 Sm01 O2 102.3(3) 2_765 3_757 ?
 O1 Sm01 O2 82.8(3) 3_757 4_567 ?
 O1 Sm01 O2 109.6(3) 4_567 2_765 ?
 O1 Sm01 O2 82.8(3) 4_567 3_757 ?
 O1 Sm01 O2 82.8(3) . 2_765 ?
 O2 Sm01 O3 34.0(3) 2_765 2_765 ?
 O2 Sm01 O3 111.1(2) 2_765 3_757 ?
 O2 Sm01 O3 66.7(2) 3_757 4_567 ?
 O2 Sm01 O3 150.0(3) 2_765 4_567 ?
 O2 Sm01 O3 34.0(3) 3_757 3_757 ?
 O2 Sm01 O3 111.1(2) . 4_567 ?
 O2 Sm01 O3 111.1(3) 3_757 2_765 ?
 O2 Sm01 O3 150.0(3) 4_567 2_765 ?
 O2 Sm01 O3 66.7(2) 4_567 3_757 ?
 O2 Sm01 O3 66.7(2) . 2_765 ?
 O2 Sm01 O3 150.0(3) . 3_757 ?
 O2 Sm01 O3 34.0(3) 4_567 4_567 ?
 O2 Sm01 O2 137.6(3) 3_757 2_765 ?
 O2 Sm01 O2 174.5(6) 2_765 4_567 ?
 O2 Sm01 O2 137.6(3) . 4_567 ?
 O2 Sm01 O2 42.8(3) . 2_765 ?
 O2 Sm01 O2 174.5(6) . 3_757 ?
 O2 Sm01 O2 42.8(3) 3_757 4_567 ?
 O5 Sm01 O1 67.4(4) . . ?
 O5 Sm01 O1 100.2(3) 3_757 4_567 ?
 O5 Sm01 O1 80.8(3) 4_567 . ?
 O5 Sm01 O1 80.8(3) . 4_567 ?
 O5 Sm01 O1 80.8(3) 2_765 3_757 ?
 O5 Sm01 O1 100.2(3) . 2_765 ?
 O5 Sm01 O1 111.6(4) 2_765 4_567 ?
 O5 Sm01 O1 111.6(4) 4_567 2_765 ?
 O5 Sm01 O1 100.2(3) 4_567 3_757 ?
 O5 Sm01 O1 67.4(4) 4_567 4_567 ?
 O5 Sm01 O1 111.6(4) 3_757 . ?
 O5 Sm01 O1 67.4(4) 2_765 2_765 ?
 O5 Sm01 O1 100.2(3) 2_765 . ?
 O5 Sm01 O1 80.8(3) 3_757 2_765 ?
 O5 Sm01 O1 67.4(4) 3_757 3_757 ?
 O5 Sm01 O1 111.6(4) . 3_757 ?
 O5 Sm01 O3 67.7(3) 2_765 3_757 ?
 O5 Sm01 O3 33.1(3) 2_765 2_765 ?
 O5 Sm01 O3 33.1(3) 3_757 3_757 ?
 O5 Sm01 O3 147.6(3) 4_567 2_765 ?
 O5 Sm01 O3 111.9(3) 4_567 3_757 ?
 O5 Sm01 O3 111.9(3) . 2_765 ?
 O5 Sm01 O3 33.1(3) 4_567 4_567 ?
 O5 Sm01 O3 67.7(3) . 4_567 ?
 O5 Sm01 O3 147.6(3) 2_765 4_567 ?
 O5 Sm01 O3 147.6(3) . 3_757 ?
 O5 Sm01 O3 111.9(3) 3_757 4_567 ?
 O5 Sm01 O3 67.7(3) 3_757 2_765 ?
 O5 Sm01 O2 89.50(18) 2_765 3_757 ?
 O5 Sm01 O2 131.79(18) . 3_757 ?
 O5 Sm01 O2 90.55(18) 2_765 . ?
 O5 Sm01 O2 48.14(17) . . ?
 O5 Sm01 O2 90.55(18) 4_567 3_757 ?
 O5 Sm01 O2 131.79(18) 2_765 4_567 ?
 O5 Sm01 O2 89.50(18) 4_567 . ?
 O5 Sm01 O2 48.14(17) 4_567 4_567 ?
 O5 Sm01 O2 48.14(17) 3_757 3_757 ?
 O5 Sm01 O2 48.14(17) 2_765 2_765 ?
 O5 Sm01 O2 90.55(18) . 2_765 ?
 O5 Sm01 O2 89.50(18) . 4_567 ?
 O5 Sm01 O2 131.79(18) 4_567 2_765 ?
 O5 Sm01 O2 89.50(18) 3_757 2_765 ?
 O5 Sm01 O2 90.55(18) 3_757 4_567 ?
 O5 Sm01 O2 131.79(18) 3_757 . ?
 O5 Sm01 O5 179.0(7) . 3_757 ?
 O5 Sm01 O5 41.4(2) . 4_567 ?
 O5 Sm01 O5 41.4(2) 3_757 2_765 ?
 O5 Sm01 O5 179.0(7) 4_567 2_765 ?
 O5 Sm01 O5 138.6(2) 3_757 4_567 ?
 O5 Sm01 O5 138.6(2) . 2_765 ?
 O24 Sm01 O1 113.28(18) 4_567 . ?
 O24 Sm01 O1 112.84(18) 2_765 . ?
 O24 Sm01 O1 88.96(17) 3_757 . ?
 O24 Sm01 O1 40.07(17) . . ?
 O24 Sm01 O3 176.8(3) 3_757 . ?
 O24 Sm01 O3 80.2(2) 2_765 . ?
 O24 Sm01 O3 81.1(2) 4_567 . ?
 O24 Sm01 O3 47.8(2) . . ?
 O24 Sm01 O24 100.3(3) 2_765 . ?
 O24 Sm01 O24 129.0(3) 3_757 . ?
 O24 Sm01 O24 101.0(3) 4_567 . ?
 O4 Rb02 O4 90.80(16) 3_656 4_566 ?
 O4 Rb02 O4 90.36(16) 3_656 2_665 ?
 O4 Rb02 O4 168.5(2) . 3_656 ?
 O4 Rb02 O4 90.36(16) . 4_566 ?
 O4 Rb02 O4 168.5(2) 4_566 2_665 ?
 O4 Rb02 O4 90.80(16) . 2_665 ?
 O4 Rb02 O11 99.9(3) . 4_566 ?
 O4 Rb02 O11 69.6(3) . 2_665 ?
 O4 Rb02 O11 119.5(3) 4_566 2_665 ?
 O4 Rb02 O11 71.5(3) 3_656 3_656 ?
 O4 Rb02 O11 99.9(3) 3_656 2_665 ?
 O4 Rb02 O11 119.5(3) 3_656 . ?
 O4 Rb02 O11 71.5(3) 2_665 2_665 ?
 O4 Rb02 O11 69.6(3) 3_656 4_566 ?
 O4 Rb02 O11 71.5(3) . . ?
 O4 Rb02 O11 99.9(3) 2_665 3_656 ?
 O4 Rb02 O11 99.9(3) 4_566 . ?
 O4 Rb02 O11 71.5(3) 4_566 4_566 ?
 O4 Rb02 O11 119.5(3) . 3_656 ?
 O4 Rb02 O11 69.6(3) 2_665 . ?
 O4 Rb02 O11 69.6(3) 4_566 3_656 ?
 O4 Rb02 O11 119.5(3) 2_665 4_566 ?
 O4 Rb02 O12 97.6(3) . 2_665 ?
 O4 Rb02 O12 97.6(3) 4_566 3_656 ?
 O4 Rb02 O12 75.8(3) 4_566 4_566 ?
 O4 Rb02 O12 75.8(3) 3_656 3_656 ?
 O4 Rb02 O12 97.6(3) 3_656 4_566 ?
 O4 Rb02 O12 115.4(3) 3_656 . ?
 O4 Rb02 O12 115.4(3) 2_665 4_566 ?
 O4 Rb02 O12 71.6(3) 3_656 2_665 ?
 O4 Rb02 O12 71.6(3) . 4_566 ?
 O4 Rb02 O12 71.6(3) 2_665 3_656 ?
 O4 Rb02 O12 71.6(3) 4_566 . ?
 O4 Rb02 O12 115.4(3) 4_566 2_665 ?
 O4 Rb02 O12 115.4(3) . 3_656 ?
 O4 Rb02 O12 97.6(3) 2_665 . ?
 O4 Rb02 O12 75.8(3) 2_665 2_665 ?
 O4 Rb02 O12 75.8(3) . . ?
 O11 Rb02 O11 58.0(6) 4_566 2_665 ?
 O11 Rb02 O11 168.2(6) 2_665 3_656 ?
 O11 Rb02 O11 123.5(6) 4_566 3_656 ?
 O11 Rb02 O11 58.0(6) 3_656 . ?
 O11 Rb02 O11 123.5(6) 2_665 . ?
 O11 Rb02 O11 168.2(6) 4_566 . ?
 O11 Rb02 O12 28.5(4) . . ?
 O11 Rb02 O12 143.3(4) 4_566 3_656 ?
 O11 Rb02 O12 43.9(4) 4_566 2_665 ?
 O11 Rb02 O12 142.8(4) 3_656 2_665 ?
 O11 Rb02 O12 143.3(4) 3_656 4_566 ?
 O11 Rb02 O12 43.9(4) . 3_656 ?
 O11 Rb02 O12 28.5(4) 3_656 3_656 ?
 O11 Rb02 O12 143.3(4) . 2_665 ?
 O11 Rb02 O12 142.8(4) 4_566 . ?
 O11 Rb02 O12 142.8(4) 2_665 3_656 ?
 O11 Rb02 O12 142.8(4) . 4_566 ?
 O11 Rb02 O12 43.9(4) 2_665 4_566 ?
 O11 Rb02 O12 28.5(4) 4_566 4_566 ?
 O11 Rb02 O12 28.5(4) 2_665 2_665 ?
 O11 Rb02 O12 43.9(4) 3_656 . ?
 O11 Rb02 O12 143.3(4) 2_665 . ?
 O12 Rb02 O12 47.9(5) 2_665 4_566 ?
 O12 Rb02 O12 170.7(6) 4_566 3_656 ?
 O12 Rb02 O12 133.1(5) 2_665 3_656 ?
 O12 Rb02 O12 47.9(5) 3_656 . ?
 O12 Rb02 O12 133.1(5) 4_566 . ?
 O12 Rb02 O12 170.7(6) 2_665 . ?
 O3 N003 O4 108.3(7) . . ?
 O3 N003 O24 115.6(5) . . ?
 O4 N003 O5 122.0(5) . . ?
 O4 N003 O24 136.0(7) . . ?
 O2 N003 O4 122.2(4) . . ?
 O2 N003 O5 115.3(5) . . ?
 N008 O1 Sm01 96.2(3) . . ?
 N003 O3 Sm01 99.6(6) . . ?
 N003 O4 Rb02 160.7(5) . . ?
 O1 N008 Sm01 59.4(3) 3_757 . ?
 O1 N008 Sm01 59.4(3) . . ?
 O1 N008 O1 118.8(6) . 3_757 ?
 O N008 Sm01 180.0 . . ?
 O N008 O1 120.6(3) . 3_757 ?
 O N008 O1 120.6(3) . . ?
 N003 O2 Sm01 98.0(3) . . ?
 N003 O5 Sm01 98.0(3) . . ?
 N003 O5 O5 167.1(5) . 4_567 ?
 O5 O5 Sm01 69.31(12) 4_567 . ?
 N003 O24 Sm01 97.0(4) . . ?
 O12 O11 Rb02 77.7(9) . . ?
 N28 O11 Rb02 93.3(16) . . ?
 N28 O11 O12 41.1(12) . . ?
 O11 O12 Rb02 73.8(8) . . ?
 O11 O12 N28 86.3(10) . 3_656 ?
 N28 O12 Rb02 74.9(6) 3_656 . ?
 N28 O12 Rb02 85.0(11) . . ?
 N28 O12 O11 28.9(11) . . ?
 N28 O12 N28 63.0(14) . 3_656 ?
 N28 O12 O20 90.9(14) . 3_656 ?
 O20 O12 Rb02 113.0(9) 3_656 . ?
 O20 O12 O11 119.8(13) 3_656 . ?
 O20 O12 N28 45.5(6) 3_656 3_656 ?
 O11 N28 Rb02 72.6(15) . . ?
 O11 N28 O12 111.2(16) . 3_656 ?
 O11 N28 O12 110.1(19) . . ?
 O11 N28 N28 139.6(16) . 3_656 ?
 O11 N28 O20 100.3(18) . . ?
 O11 N28 O20 163.0(17) . 3_656 ?
 O12 N28 Rb02 69.9(6) 3_656 . ?
 O12 N28 Rb02 75.7(11) . . ?
 O12 N28 O12 113.5(14) . 3_656 ?
 O12 N28 N28 83.4(15) . 3_656 ?
 O12 N28 O20 53.0(12) . 3_656 ?
 O12 N28 O20 149.5(18) . . ?
 N28 N28 Rb02 74.5(3) 3_656 . ?
 N28 N28 O12 33.6(6) 3_656 3_656 ?
 N28 N28 O20 45.6(6) 3_656 3_656 ?
 O20 N28 Rb02 98.9(7) 3_656 . ?
 O20 N28 Rb02 111.3(8) . . ?
 O20 N28 O12 49.0(8) . 3_656 ?
 O20 N28 O12 78.2(8) 3_656 3_656 ?
 O20 N28 N28 70.9(8) . 3_656 ?
 O20 N28 O20 96.5(11) . 3_656 ?
 O12 O20 N28 36.1(7) 3_656 3_656 ?
 N28 O20 O12 85.5(11) . 3_656 ?
 N28 O20 N28 63.5(11) . 3_656 ?
 C3 C2 C8 104.8(5) . . ?
 C1 C2 C3 110.6(5) . . ?
 C1 C2 C8 101.4(4) . . ?
 C1 C3 C2 98.8(4) 3_657 . ?
 C1 C3 N2 98.8(4) 3_657 . ?
 C3 C1 Cl1 127.6(4) 3_657 . ?
 C8 C8 C2 100.8(4) 3_657 . ?
 C8 C8 N2 100.8(4) 3_657 . ?
 C6 C4 C7 105.6(3) . . ?
 C6 C4 C9 105.8(4) . . ?
 C9 C4 C7 104.3(3) . . ?
 C6 C7 C4 104.2(3) 3_756 . ?
 C6 C7 Cl2 121.7(5) 3_756 . ?
 C6 C7 N4 104.2(3) 3_756 . ?
 C9 C9 C4 103.9(3) 3_756 . ?
 C9 C9 N4 103.9(3) 3_756 . ?
 C6 N4 C7 105.6(3) . . ?
 C6 N4 C9 105.8(4) . . ?
 C9 N4 C7 104.3(3) . . ?
 C3 N2 C8 104.8(5) . . ?
 C1 N2 C3 110.6(5) . . ?
 C1 N2 C8 101.4(4) . . ?

loop_
  _geom_torsion_atom_site_label_1
  _geom_torsion_atom_site_label_2
  _geom_torsion_atom_site_label_3
  _geom_torsion_atom_site_label_4
  _geom_torsion
  _geom_torsion_site_symmetry_1
  _geom_torsion_site_symmetry_2
  _geom_torsion_site_symmetry_3
  _geom_torsion_site_symmetry_4
  _geom_torsion_publ_flag
 Sm01 O1 N008 O1 -0.001(2) . . . 3_757 ?
 Sm01 O1 N008 O 180.000(1) . . . . ?
 Rb02 O11 O12 N28 75.4(6) . . . 3_656 ?
 Rb02 O11 O12 N28 110(2) . . . . ?
 Rb02 O11 O12 O20 107.6(13) . . . 3_656 ?
 Rb02 O11 N28 O12 59.5(12) . . . 3_656 ?
 Rb02 O11 N28 O12 -67.1(16) . . . . ?
 Rb02 O11 N28 N28 37(2) . . . 3_656 ?
 Rb02 O11 N28 O20 -62(6) . . . 3_656 ?
 Rb02 O11 N28 O20 109.3(10) . . . . ?
 Rb02 O12 N28 O11 65.1(19) . . . . ?
 Rb02 O12 N28 O12 -60.2(12) . . . 3_656 ?
 Rb02 O12 N28 N28 -75.6(3) . . . 3_656 ?
 Rb02 O12 N28 O20 -108(3) . . . . ?
 Rb02 O12 N28 O20 -113.0(9) . . . 3_656 ?
 Rb02 N28 O20 O12 -34.0(11) . . . 3_656 ?
 Rb02 N28 O20 N28 -63.9(6) . . . 3_656 ?
 O3 N003 O4 Rb02 179.2(9) . . . . ?
 O3 N003 O24 Sm01 -0.7(6) . . . . ?
 O4 N003 O3 Sm01 179.9(3) . . . . ?
 O4 N003 O2 Sm01 -164.0(6) . . . . ?
 O4 N003 O5 Sm01 164.0(6) . . . . ?
 O4 N003 O5 O5 154(7) . . . 4_567 ?
 O4 N003 O24 Sm01 -179.6(5) . . . . ?
 O2 N003 O4 Rb02 -93.1(13) . . . . ?
 O2 N003 O5 Sm01 -7.5(12) . . . . ?
 O2 N003 O5 O5 -18(8) . . . 4_567 ?
 O5 N003 O4 Rb02 96.0(14) . . . . ?
 O5 N003 O2 Sm01 7.4(12) . . . . ?
 O24 N003 O3 Sm01 0.7(6) . . . . ?
 O24 N003 O4 Rb02 -1.9(14) . . . . ?
 O11 O12 N28 Rb02 -65.1(19) . . . . ?
 O11 O12 N28 O12 -125(3) . . . 3_656 ?
 O11 O12 N28 N28 -140.7(18) . . . 3_656 ?
 O11 O12 N28 O20 -173(4) . . . . ?
 O11 O12 N28 O20 -178.1(19) . . . 3_656 ?
 O11 N28 O20 O12 -109.2(19) . . . 3_656 ?
 O11 N28 O20 N28 -139.2(16) . . . 3_656 ?
 O12 O11 N28 Rb02 67.1(16) . . . . ?
 O12 O11 N28 O12 127(2) . . . 3_656 ?
 O12 O11 N28 N28 104(3) . . . 3_656 ?
 O12 O11 N28 O20 176(2) . . . . ?
 O12 O11 N28 O20 5(5) . . . 3_656 ?
 O12 N28 O20 O12 64(3) . . . 3_656 ?
 O12 N28 O20 N28 -29.9(8) 3_656 . . 3_656 ?
 O12 N28 O20 N28 34(3) . . . 3_656 ?
 N28 O11 O12 Rb02 -110(2) . . . . ?
 N28 O11 O12 N28 -34.4(18) . . . 3_656 ?
 N28 O11 O12 O20 -2(2) . . . 3_656 ?
 N28 O12 N28 Rb02 75.6(3) 3_656 . . . ?
 N28 O12 N28 O11 140.7(18) 3_656 . . . ?
 N28 O12 N28 O12 15.4(12) 3_656 . . 3_656 ?
 N28 O12 N28 O20 -32(3) 3_656 . . . ?
 N28 O12 N28 O20 -37.4(7) 3_656 . . 3_656 ?
 N28 N28 O20 O12 29.9(8) 3_656 . . 3_656 ?
 O20 O12 N28 Rb02 113.0(9) 3_656 . . . ?
 O20 O12 N28 O11 178.1(19) 3_656 . . . ?
 O20 O12 N28 O12 52.8(17) 3_656 . . 3_656 ?
 O20 O12 N28 N28 37.4(7) 3_656 . . 3_656 ?
 O20 O12 N28 O20 5(3) 3_656 . . . ?
 O20 N28 O20 O12 68.2(11) 3_656 . . 3_656 ?
 O20 N28 O20 N28 38.3(8) 3_656 . . 3_656 ?
 C3 C2 C1 C3 84.4(5) . . . 3_657 ?
 C3 C2 C8 C8 -26.5(6) . . . 3_657 ?
 C3 C1 N2 C3 84.4(5) 3_657 . . . ?
 C3 C1 N2 C8 -26.3(5) 3_657 . . . ?
 C1 C2 C3 C1 -22.1(6) . . . 3_657 ?
 C1 C2 C8 C8 88.5(6) . . . 3_657 ?
 C1 C3 N2 C1 -22.1(6) 3_657 . . . ?
 C1 C3 N2 C8 86.4(5) 3_657 . . . ?
 C8 C2 C3 C1 86.4(5) . . . 3_657 ?
 C8 C2 C1 C3 -26.3(5) . . . 3_657 ?
 C8 C8 N2 C3 -26.5(6) 3_657 . . . ?
 C8 C8 N2 C1 88.5(5) 3_657 . . . ?
 C6 C4 C7 C6 -82.1(3) . . . 3_756 ?
 C6 C4 C9 C9 26.5(6) . . . 3_756 ?
 C6 C7 N4 C6 -82.1(3) 3_756 . . . ?
 C6 C7 N4 C9 29.2(4) 3_756 . . . ?
 C7 C4 C6 C7 28.8(5) . . . 3_756 ?
 C7 C4 C9 C9 -84.6(5) . . . 3_756 ?
 C7 C6 N4 C7 28.8(5) 3_756 . . . ?
 C7 C6 N4 C9 -81.4(4) 3_756 . . . ?
 C9 C4 C6 C7 -81.4(4) . . . 3_756 ?
 C9 C4 C7 C6 29.2(4) . . . 3_756 ?
 C9 C9 N4 C6 26.5(6) 3_756 . . . ?
 C9 C9 N4 C7 -84.6(5) 3_756 . . . ?

_shelx_res_file
;
TITL mo_R3CQ_SmRb_0m_a.res in C222
    mo_r3cq_smrb_0m_a.res
    created by SHELXL-2019/3 at 20:49:32 on 16-Nov-2024
REM Old TITL Integration of R3CQ_SmRb
REM SHELXT solution in C222: R1 0.205, Rweak 0.044, Alpha 0.052
REM <I/s> 0.000 for 0 systematic absences, Orientation as input
REM Flack x = 0.471 ( 0.024 ) from 825 Parsons' quotients
REM Formula found by SHELXT: C20 N4 Rb Sm
CELL 0.71073 10.0776 24.5298 10.0995 90 90 90
ZERR 2 0.0028 0.0079 0.0028 0 0 0
LATT -7
SYMM -X,-Y,+Z
SYMM -X,+Y,-Z
SYMM +X,-Y,-Z
SFAC C Cl N O Rb Sm
UNIT 56 8 24 48 2 2
EQIV $1 1-X,+Y,2-Z
EQIV $2 1.5-X,1.5-Y,+Z
EQIV $3 2-X,+Y,1-Z
DFIX 1.3 0.01 O24 N003
DANG 2.4 C1 C3
DFIX 1.3 0.01 O20 N28
DANG 2.4 C2 C3_$1
SIMU 0.01 0.02 2 Rb02 Sm01 O3 O1 O24 O5 O2 N003 N008 O4 O O11 O12 N28 O20
DANG 2.4 C1 C2_$1
ISOR 0.01 0.02 N28 O11 O12 O20
DANG 2.4 C3 C1
DANG 2.4 C2_$1 C3
DFIX 1.5 0.01 C2 C1 C3 C1_$1 C3 C2 C2 C1 C3 C2 C3_$1 C1
DFIX 1.5 0.01 C8 C2
DFIX 1.5 0.01 C8 C8_$1
DANG 2.6 C2 C2_$1
DFIX 1.75 0.01 Cl1 C1
SIMU 0.01 0.02 2 C1 C2 C3 C8 Cl1
DFIX 1.5 0.01 C6 C4 C7 C4
DFIX 1.5 0.01 C7_$3 C6 C7 C6_$3 C7_$3 C4_$3 C6_$3 C4_$3
DANG 2.4 C7 C6
DANG 2.4 C4 C7_$3
DANG 2.4 C4_$3 C6
DANG 2.4 C4_$3 C7
DANG 2.4 C6_$3 C4
DFIX 1.5 0.01 C9_$3 C9
DFIX 1.5 0.01 C9 C4 C9_$3 C4_$3
DANG 2.6 C4_$3 C4
DANG 2.4 0.01 C9 C7
DANG 2.4 0.01 C4 C6_$3
DANG 2.4 0.01 C7 C4_$3
DANG 2.4 0.01 C6_$3 C9_$3
DANG 2.4 0.01 C6 C7
DANG 2.4 0.01 C7_$3 C4
DANG 2.4 0.01 C7_$3 C6_$3
DANG 2.4 0.01 C9_$3 C7_$3
SIMU 0.01 0.02 2 C4 C6 C7 C9 Cl2
EADP C4 N4
EADP C2 N2
EXYZ C4 N4
EXYZ C2 N2

L.S. 25
PLAN  5
TEMP 13.85
CONF
CONN 20 Sm01
BIND O12 N28
FREE Cl1 Cl1_$2
FREE Cl2 Cl1
FREE O24 O1
FREE O20 O11
LIST 4
MORE -1
fmap 2
acta
TWIN -1 0 0 0 -1 0 0 0 -1 2
REM <olex2.extras>
REM <HklSrc "%.\\mo_R3CQ_SmRb_0m_a.hkl">
REM </olex2.extras>

WGHT    0.111900
BASF   0.51228
FVAR       0.27694   0.48303
SM01  6    1.000000    0.500000    1.000000    10.25000    0.03469    0.06454 =
         0.03182    0.00000    0.00000    0.00000
RB02  5    0.500000    0.500000    0.500000    10.25000    0.03707    0.09202 =
         0.03469    0.00000    0.00000    0.00000
N003  3    0.788321    0.500059    0.787957    11.00000    0.05634    0.11964 =
         0.05146   -0.00006   -0.01818   -0.00576
O1    4    0.925200    0.596139    0.924543    11.00000    0.09944    0.07868 =
         0.08482    0.01083   -0.01522    0.00751
O     4    1.000000    0.671851    1.000000    10.50000    0.19404    0.08253 =
         0.17987    0.00000   -0.04028    0.00000
PART 2
O3    4    0.831973    0.459773    0.830422   -21.00000    0.06449    0.11875 =
         0.05935   -0.00684   -0.01778   -0.01563
PART 0
O4    4    0.703174    0.488093    0.701940    11.00000    0.08498    0.13862 =
         0.08005   -0.00040   -0.04244   -0.00151
N008  3    1.000000    0.621984    1.000000    10.50000    0.11121    0.06337 =
         0.10421    0.00000   -0.03529    0.00000
PART 1
O2    4    0.907001    0.505116    0.760823    21.00000    0.05556    0.10808 =
         0.04985    0.00718   -0.00807   -0.00857
O5    4    0.760910    0.500932    0.909929    21.00000    0.05505    0.11803 =
         0.05644    0.00049   -0.00381   -0.00250
PART 2
O24   4    0.837905    0.545060    0.837017   -21.00000    0.06872    0.10258 =
         0.06131    0.00165   -0.01227   -0.00702
PART 0
O11   4    0.529957    0.604515    0.637410    10.50000    0.17531    0.18017 =
         0.17873   -0.00250   -0.02028   -0.00838
O12   4    0.617735    0.611119    0.523924    10.50000    0.17007    0.17434 =
         0.17028   -0.00710   -0.01956   -0.00914
N28   3    0.533075    0.620437    0.574187    10.50000    0.17707    0.17911 =
         0.18065   -0.00445   -0.01645   -0.01057
O20   4    0.418414    0.645451    0.578562    10.50000    0.18684    0.18993 =
         0.19052    0.00266   -0.01799   -0.01137

PART 3
C2    1    0.490039    0.645457    0.878103    10.50000    0.13363    0.14650 =
         0.25349   -0.04020    0.01217    0.01581
PART 0
C3    1    0.357536    0.656139    0.942812    11.00000    0.11432    0.15748 =
         0.26543   -0.04459   -0.01691    0.02901
C1    1    0.594164    0.683470    0.932296    11.00000    0.13966    0.14756 =
         0.22653   -0.01584    0.01496   -0.01865
C8    1    0.535439    0.590976    0.934722    11.00000    0.14304    0.13707 =
         0.26595   -0.03415    0.01894    0.03494
PART -1
CL1   2    0.685439    0.723037    0.823003    10.50000    0.14615    0.12439 =
         0.17131    0.02509    0.03064   -0.02714

PART 3
C4    1    0.875347    0.643598    0.482014    10.50000    0.24453    0.18925 =
         0.17675    0.02300    0.05617   -0.01503
PART 0
C6    1    0.952303    0.658902    0.360433    11.00000    0.24807    0.19127 =
         0.15736    0.02733    0.03754   -0.01386
C7    1    0.919756    0.683030    0.588371    11.00000    0.24305    0.19393 =
         0.19812   -0.01930    0.05720    0.00812
C9    1    0.930252    0.589297    0.525985    11.00000    0.25476    0.18924 =
         0.18759    0.04974    0.05853   -0.01714
PART -1
CL2   2    0.836972    0.725490    0.672120    10.50000    0.25738    0.22078 =
         0.24440   -0.07329    0.04832    0.05288
PART 4
N4    3    0.875347    0.643598    0.482014    10.50000    0.24453    0.18925 =
         0.17675    0.02300    0.05617   -0.01503

N2    3    0.490039    0.645457    0.878103    10.50000    0.13363    0.14650 =
         0.25349   -0.04020    0.01217    0.01581
HKLF 4




REM  mo_R3CQ_SmRb_0m_a.res in C222
REM wR2 = 0.1657, GooF = S = 1.076, Restrained GooF = 1.100 for all data
REM R1 = 0.0594 for 2056 Fo > 4sig(Fo) and 0.0749 for all 2568 data
REM 208 parameters refined using 220 restraints

END

WGHT      0.1118      0.0000

REM Highest difference peak  2.036,  deepest hole -0.602,  1-sigma level  0.167
Q1    1   1.0000  0.4863  1.0000  10.50000  0.05    1.13
Q2    1   1.0000  0.5781  0.5000  10.50000  0.05    0.93
Q3    1   0.8890  0.6559  0.3798  11.00000  0.05    0.80
Q4    1   0.8894  0.6552  0.6251  11.00000  0.05    0.76
Q5    1   0.5000  0.5786  1.0000  10.50000  0.05    0.69
;
_shelx_res_checksum                27495
_shelx_hkl_file
;
   2   0   0 7411.50  266.39
   4   0   0 1282.02   65.35
  -6   0   0 1087.80   41.22
  -6   0   0 1070.56   40.30
   6   0   0 1006.74   64.58
  -6   0   0  785.12  107.50
   6   0   0 1019.17   41.03
   6   0   0 1044.41   41.08
  -8   0   0  373.62   19.37
  -8   0   0  360.62   17.79
   8   0   0  388.36   44.99
   8   0   0  315.39   18.64
   8   0   0  339.14   18.81
 -10   0   0  249.42   17.25
  10   0   0  211.72   47.11
 -10   0   0  264.11   15.88
  10   0   0  267.42   17.56
 -12   0   0  134.52   13.59
  12   0   0  103.46   57.93
 -12   0   0  123.34   15.76
  12   0   0  145.80   54.82
  12   0   0  131.21   14.00
 -12   0   0  101.86    9.37
   1  -1   0  666.28   29.63
   1   1   0  692.75   29.38
   3   1   0    1.56    1.73
   3  -1   0   -5.90    4.74
  -3  -1   0    5.68    2.08
  -3   1   0    2.33    1.65
  -3   1   0    5.10    1.94
   3  -1   0    2.52    1.84
   3   1   0   -0.57    5.15
   3   1   0    6.41    2.06
  -3  -1   0    2.60    1.74
   3  -1   0    4.51    1.81
   5  -1   0   19.45    4.21
  -5  -1   0   32.12    5.25
  -5  -1   0   20.21    4.20
  -5   1   0   15.51    3.80
  -5   1   0   19.79    3.84
   5   1   0   16.48    3.81
   5  -1   0   23.49   12.71
  -5  -1   0   25.43   13.92
   5   1   0   17.97   12.10
   5  -1   0   16.85    3.86
   5   1   0   13.91    3.83
   7  -1   0   16.02    4.73
  -7  -1   0   12.63    4.98
  -7  -1   0   18.67    4.97
   7  -1   0   11.00    4.65
   7  -1   0    8.97   19.28
   7   1   0   19.08    5.33
   7   1   0    1.72   15.37
  -7  -1   0   21.99   19.05
  -7   1   0   12.04    4.20
   7   1   0    8.42    4.51
  -7   1   0   18.10    5.47
   9   1   0   57.38   31.21
  -9   1   0   38.97    7.78
  -9  -1   0   39.41    7.29
  -9  -1   0   39.62    8.35
  -9   1   0   36.44    6.99
   9  -1   0   63.48   32.60
   9   1   0   27.40    7.37
   9  -1   0   35.64    7.78
   9  -1   0   38.49    7.59
  11  -1   0   19.25    7.74
  11  -1   0  -34.44   36.76
 -11  -1   0   16.61    8.00
 -11   1   0   26.42    6.73
  11  -1   0   15.74   41.37
 -11   1   0   18.20    7.67
 -11  -1   0   23.24    7.08
  11   1   0   52.48   42.19
  11   1   0   28.75    8.75
  -2  -2   0  422.33   15.98
  -2   2   0  404.56   15.90
   2   2   0  463.51   25.45
   2  -2   0  409.62   23.69
   2  -2   0  404.36   15.83
  -2  -2   0  426.00   16.46
   2   2   0  423.44   16.50
   2  -2   0  415.28   25.18
  -2  -2   0  340.03   25.13
   4  -2   0 3153.43  130.34
   4   2   0 3213.35  129.28
  -4  -2   0 2824.99  128.52
  -6  -2   0  648.32   51.85
   6   2   0  701.87   28.74
   6   2   0  755.55   52.30
  -6  -2   0  670.67   28.02
   6  -2   0  678.64   28.83
  -6  -2   0  703.88   29.15
  -6   2   0  707.77   28.61
   6  -2   0  629.45   49.79
   6  -2   0  635.65   28.04
  -6   2   0  675.59   27.68
   6   2   0  671.57   29.14
   8   2   0  407.81   21.54
  -8  -2   0  405.44   19.86
  -8  -2   0  405.53   21.18
   8  -2   0  397.90   20.37
   8   2   0  428.03   48.85
  -8  -2   0  416.27   57.26
   8  -2   0  413.95   21.32
  -8   2   0  404.53   20.49
   8  -2   0  422.61   46.25
  -8   2   0  386.15   19.24
  10  -2   0  246.90   17.47
 -10  -2   0  226.84   17.17
 -10   2   0  231.49   16.53
 -10  -2   0  232.59   15.21
  10  -2   0  267.78   16.98
  10   2   0  257.37   53.99
  10   2   0  277.11   17.96
  10  -2   0  200.26   49.57
 -10   2   0  242.51   15.09
  12   2   0  162.64   55.68
 -12  -2   0   97.43   14.91
 -12  -2   0   78.05   11.97
  12   2   0  152.31   13.69
  12  -2   0   75.14   53.89
 -12   2   0  106.06   13.73
 -12  -2   0  130.66   10.45
  12  -2   0   46.95   47.39
   1   3   0  670.17   30.92
  -1  -3   0  642.99   30.92
   1  -3   0  654.80   29.70
  -1   3   0  660.13   30.21
  -1  -3   0  668.26   24.62
  -3  -3   0   25.86    3.92
   3  -3   0   20.84    3.18
   3  -3   0   36.90    4.21
   3   3   0   23.85    8.86
   3  -3   0   26.93   10.66
  -3  -3   0    7.27    6.78
  -3   3   0   26.82    3.36
  -3  -3   0   26.54    3.54
   3  -3   0   24.97    9.23
  -3   3   0   29.50    3.78
   3   3   0   25.02    3.65
   5  -3   0   81.35    6.62
  -5  -3   0  169.74   27.56
  -5  -3   0  106.99    7.95
   5  -3   0  106.52    7.70
   5   3   0  140.79   25.06
   5   3   0   98.98    7.77
   5  -3   0  109.20   23.13
  -5   3   0   91.00    6.67
  -5  -3   0   94.55    7.00
  -5   3   0   92.18    7.05
   7  -3   0   58.41    8.53
  -7   3   0   68.67    8.71
   7  -3   0   63.51    8.14
   7   3   0   63.13   22.26
  -7  -3   0   76.57   26.69
  -7   3   0   67.36    6.84
   7   3   0   59.08    8.26
  -7  -3   0   57.34    8.43
  -7  -3   0   50.62    7.11
   7  -3   0   26.63   19.58
  -9  -3   0   23.51   27.27
   9   3   0   66.98   33.21
   9  -3   0  129.21   37.84
  -9   3   0   47.85    8.76
   9   3   0   58.26    9.69
  -9   3   0   39.19    6.83
  -9  -3   0   67.67    9.09
   9  -3   0   57.63    8.90
  -9  -3   0   41.05    8.40
   9  -3   0   43.84   24.31
   9  -3   0   47.09    8.95
  11   3   0  -32.50   39.32
 -11  -3   0    8.00    5.81
 -11  -3   0   20.79    8.05
 -11   3   0   18.98    6.09
 -11   3   0   20.18    7.64
 -11  -3   0    9.44    6.81
  11  -3   0   -9.77   43.48
  11  -3   0   11.89    7.52
  11   3   0    6.33    6.90
  11  -3   0   -5.60   35.03
   0  -4   0  326.59   13.51
   0   4   0  388.89   20.12
   0  -4   0  333.71   19.56
   0   4   0  334.70   13.61
   2  -4   0 1035.63   47.10
   2   4   0 1016.37   48.19
  -2   4   0 1010.19   47.67
  -2  -4   0 1019.67   48.96
   4   4   0 2263.65   99.85
  -4  -4   0 2203.86  101.30
   4  -4   0 2234.36  101.34
   4  -4   0 2149.31   96.78
   6  -4   0  799.87   57.76
   6   4   0  945.20   60.48
   6  -4   0  786.62   53.95
   6  -4   0  821.79   33.07
  -6  -4   0  772.18   57.70
  -6  -4   0  834.19   34.48
  -6  -4   0  819.81   33.15
   6  -4   0  871.65   34.27
   6   4   0  818.80   34.60
  -6   4   0  810.45   33.23
  -6   4   0  779.72   32.32
  -8   4   0  280.56   15.35
  -8  -4   0  307.62   47.61
   8  -4   0  237.36   39.17
   8  -4   0  306.01   48.60
   8   4   0  284.17   17.66
   8   4   0  375.12   51.90
   8  -4   0  293.95   16.23
  -8   4   0  296.51   16.55
   8  -4   0  271.61   16.81
  -8  -4   0  296.53   16.15
  -8  -4   0  271.54   17.28
  10  -4   0  247.02   17.91
  10  -4   0  254.54   53.74
 -10  -4   0  269.19   53.74
 -10   4   0  271.74   15.75
 -10  -4   0  243.16   15.92
  10   4   0  268.33   18.95
  10   4   0  255.55   51.14
 -10   4   0  243.53   16.82
 -10  -4   0  247.66   18.25
 -10  -4   0  261.53   17.63
 -12  -4   0   57.36   11.15
  12  -4   0   80.09   14.00
  12  -4   0  106.39   59.00
  12   4   0  129.81   57.81
 -12  -4   0   78.82   11.28
  12  -4   0    5.82   44.09
 -12   4   0   71.88   11.52
  -1  -5   0  268.01   19.15
   1   5   0  237.99   11.13
  -1   5   0  275.71   18.27
   1  -5   0  250.88   10.77
   1   5   0  236.87   11.31
  -1   5   0  248.46   10.70
  -1  -5   0  238.58   11.04
   1   5   0  258.75   18.30
   1  -5   0  252.14   16.92
   3   5   0  341.94   15.70
   3  -5   0  302.77   24.20
  -3  -5   0  285.99   25.69
  -3   5   0  351.22   26.62
  -3   5   0  329.23   14.47
   3  -5   0  349.25   14.80
  -3  -5   0  357.03   15.73
  -3  -5   0  355.74   15.44
  -3   5   0  335.48   14.33
   3   5   0  336.52   26.34
   5  -5   0  160.31    9.64
  -5   5   0  134.02    8.71
   5   5   0  126.13    9.40
   5  -5   0  133.24   26.08
  -5  -5   0  138.23    8.75
  -5  -5   0  112.44   23.00
   5  -5   0  118.77   21.53
  -5   5   0  141.71    8.53
   5   5   0  151.55   26.11
  -5  -5   0  135.46    9.76
  -7  -5   0   65.64    8.14
   7   5   0   65.05    9.57
  -7  -5   0   64.47    8.64
  -7   5   0   67.76    8.64
   7  -5   0   56.51   20.90
   7   5   0   66.68   24.34
  -7  -5   0   22.53   19.88
   7  -5   0   63.13    8.80
  -7   5   0   69.19    7.70
   7  -5   0   45.73   23.74
   9  -5   0   64.04   28.74
  -9  -5   0   65.33    9.29
  -9  -5   0   49.44    9.20
  -9   5   0   54.96    8.89
  -9   5   0   52.10    8.06
   9   5   0   55.65   10.00
  -9  -5   0   49.83    9.20
   9  -5   0   34.02   28.48
   9   5   0   37.14   30.57
   9  -5   0   55.11    9.70
  -9  -5   0   34.21   30.75
 -11  -5   0   27.03   39.43
 -11   5   0   12.03    5.89
  11  -5   0   12.20   32.20
  11  -5   0    3.30   38.81
  11   5   0    6.13    7.09
  11   5   0   41.09   40.05
 -11  -5   0   13.20    6.30
 -11  -5   0   11.71    7.38
 -11   5   0    2.90    6.00
  11  -5   0   16.87    8.27
 -11  -5   0    6.39    6.83
   0  -6   0 8386.77  304.61
   0   6   0 8575.54  304.23
  -2   6   0  500.25   31.93
   2  -6   0  517.67   30.60
   2   6   0  563.34   22.77
   2  -6   0  571.11   21.77
   2   6   0  557.48   33.38
  -2  -6   0  538.72   22.11
  -2  -6   0  555.67   34.07
  -2   6   0  548.74   21.45
   4   6   0 1675.16   63.56
   4  -6   0 1772.69   81.16
  -4   6   0 1692.22   61.62
   4   6   0 1704.54   82.32
  -4  -6   0 1751.89   63.11
  -4   6   0 1606.07   61.84
   4  -6   0 1770.55   86.26
  -4  -6   0 1644.19   83.95
   6   6   0  534.82   25.79
   6  -6   0  582.18   49.54
  -6  -6   0  541.56   25.11
  -6   6   0  552.77   24.27
  -6   6   0  528.11   23.37
   6  -6   0  605.32   25.42
  -6  -6   0  587.42   24.58
  -6  -6   0  484.27   46.82
   6  -6   0  503.77   42.58
   6   6   0  573.67   47.81
  -6  -6   0  560.11   25.77
  -8   6   0  508.14   24.04
  -8  -6   0  491.98   25.64
   8  -6   0  560.76   57.12
   8  -6   0  573.71   50.38
  -8   6   0  508.46   22.92
  -8  -6   0  490.41   23.80
   8   6   0  478.14   25.78
  -8  -6   0  354.41   55.16
   8   6   0  575.53   56.12
  -8  -6   0  511.30   24.89
   8  -6   0  491.30   25.09
 -10   6   0  221.55   14.41
  10  -6   0  183.09   51.58
 -10  -6   0  214.94   16.54
  10   6   0  237.60   18.36
 -10  -6   0  247.73   17.84
 -10  -6   0  210.35   15.17
 -10  -6   0  164.42   48.80
  10  -6   0  181.30   47.58
  10  -6   0  202.53   16.84
 -10   6   0  235.29   15.92
  10   6   0   96.38   39.72
 -12  -6   0   83.66   10.75
  12  -6   0  -22.65   57.91
  12  -6   0   88.22   13.96
  12   6   0   74.32   56.75
 -12  -6   0   -3.77   60.46
 -12  -6   0   76.29   11.48
 -12   6   0   76.62   11.67
  -1   7   0   69.41   12.19
   1  -7   0   94.27   14.02
  -1   7   0   65.84    5.26
   1   7   0   78.53   14.48
   1   7   0   72.58    5.84
  -1  -7   0   85.25    5.94
   1  -7   0   80.46    5.68
  -1  -7   0   54.25   11.97
  -3  -7   0  144.84   22.62
  -3   7   0  156.18   18.80
   3   7   0  128.42    8.90
  -3   7   0  145.48    8.15
   3  -7   0  144.79    8.41
   3  -7   0  131.02   16.35
   3   7   0  158.40   23.33
  -3  -7   0  138.11    8.87
   5  -7   0  106.43   24.21
   5  -7   0  132.32   24.27
   5   7   0   85.73    8.43
  -5   7   0   87.22    7.35
   5  -7   0   95.63    8.07
  -5  -7   0   92.89    7.47
  -5  -7   0   96.94    8.60
   5   7   0  139.55   28.33
  -5  -7   0   90.19    8.32
  -5  -7   0   83.03   22.22
  -5   7   0   97.26    7.33
  -7  -7   0    3.06    4.77
   7   7   0    7.68    4.91
  -7  -7   0    4.00    4.48
   7  -7   0   -6.78   13.63
  -7  -7   0    9.85   18.99
  -7  -7   0    4.15    4.18
   7   7   0   -6.08   16.94
   7  -7   0  -13.39   15.80
   7  -7   0   10.65    5.12
  -7   7   0   13.47    4.40
  -7   7   0    5.03    4.18
  -9  -7   0   63.21   32.60
   9   7   0   67.23   31.44
  -9  -7   0   59.76   10.68
  -9  -7   0   48.72    9.29
   9  -7   0  108.83   39.52
   9  -7   0   53.60   10.23
   9  -7   0   47.97   27.08
   9   7   0   61.42   10.94
  -9   7   0   82.09    9.37
  -9  -7   0   73.71    9.86
  -9   7   0   63.73    9.63
 -11  -7   0   12.50    7.25
  11  -7   0   12.67    7.90
  11  -7   0  -30.88   34.47
 -11  -7   0  -40.72   43.14
  11   7   0   -0.06   47.92
 -11   7   0   20.77    7.32
 -11  -7   0   19.93    7.62
 -11   7   0   22.56    6.57
  11  -7   0   44.75   49.09
   0   8   0 5301.87  198.47
   0  -8   0 5243.18  199.48
  -2  -8   0  807.32   31.59
  -2  -8   0  746.38   45.78
  -2   8   0  804.10   30.85
   2  -8   0  793.16   30.97
   2   8   0  811.99   45.54
   2   8   0  792.14   32.01
  -2   8   0  767.28   44.37
   2  -8   0  805.12   42.72
   2   8   0  809.11   32.33
  -4  -8   0 1775.28   88.93
  -4  -8   0 1770.31   64.62
   4   8   0 1562.63   65.06
   4   8   0 1752.38   85.92
   4  -8   0 1810.93   82.98
  -4  -8   0 1724.83   65.39
   4  -8   0 1736.13   64.02
  -4   8   0 1756.19   63.78
  -4   8   0 1715.72   63.18
  -4   8   0 1718.31   85.64
  -6  -8   0  346.76   42.47
   6  -8   0  457.45   21.22
  -6  -8   0  341.02   20.15
  -6  -8   0  450.19   22.15
  -6  -8   0  442.98   20.28
  -6   8   0  444.71   20.29
  -6   8   0  414.60   19.33
   6   8   0  412.72   40.98
   6  -8   0  401.84   39.36
   6  -8   0  456.07   44.58
   6   8   0  420.35   21.99
  -8   8   0  313.71   17.79
   8   8   0  307.58   48.57
  -8   8   0  329.09   17.11
   8  -8   0  378.30   55.06
  -8  -8   0  316.40   17.81
   8   8   0  311.30   20.07
  -8  -8   0  306.11   19.63
  -8  -8   0  301.47   18.76
   8  -8   0  346.86   39.61
   8  -8   0  317.73   19.24
  -8  -8   0  304.19   52.55
 -10  -8   0  192.17   16.98
  10  -8   0  193.29   16.36
  10   8   0  199.80   51.85
 -10  -8   0  175.75   14.26
 -10  -8   0  193.05   15.58
 -10   8   0  197.82   13.78
 -10  -8   0  128.14   48.38
  10  -8   0   95.22   33.38
  10  -8   0  121.45   42.51
 -10   8   0  198.39   14.75
  10   8   0  213.01   17.88
  12   8   0   94.31   66.85
 -12  -8   0   58.07   11.05
 -12  -8   0  -62.06   59.58
  12  -8   0   -3.03   63.60
 -12   8   0   60.03   10.85
  12  -8   0   51.52   12.17
 -12  -8   0   93.79    9.38
   1   9   0   74.00    6.75
   1   9   0   89.90   16.55
  -1  -9   0  111.62   19.89
   1  -9   0   68.07   14.14
  -1  -9   0   92.03    6.91
   1  -9   0   81.96    6.70
  -1   9   0   56.82   13.34
  -1   9   0   79.64    6.43
   3  -9   0  109.29   19.11
  -3  -9   0  193.13   28.21
  -3   9   0  134.27    8.55
  -3   9   0  133.82   22.07
   3   9   0  120.76    9.54
   3  -9   0  144.65    9.19
   3   9   0  135.76   22.93
  -3  -9   0  154.14    9.70
   5  -9   0    6.18    3.77
   5   9   0    9.98    4.71
  -5  -9   0    3.30    4.03
   5   9   0   -1.01   12.08
  -5   9   0    2.89    3.43
  -5  -9   0   15.23   15.04
   5  -9   0   -1.36    9.53
  -5   9   0   12.09    4.04
  -7  -9   0   21.35    6.58
  -7  -9   0   25.86    6.95
  -7  -9   0   25.67    6.36
  -7   9   0   28.47    6.28
   7  -9   0   13.48   17.08
  -7   9   0   28.61    6.02
   7   9   0   17.52    6.30
   7   9   0  -10.56   20.53
   7  -9   0   29.11   23.73
   7  -9   0   43.20    8.33
  -7  -9   0   16.21   21.68
   9   9   0   68.12   38.63
   9  -9   0   67.29   29.97
  -9  -9   0   55.20    9.52
   9  -9   0    4.26   31.94
   9  -9   0   48.62    9.97
   9   9   0   60.76   11.58
  -9  -9   0   47.09    9.48
  -9   9   0   47.37    8.73
  -9  -9   0   36.96   35.49
  -9   9   0   58.11    8.37
 -11  -9   0    7.92    6.87
 -11  -9   0   69.06   52.32
  11  -9   0  -30.98   47.37
 -11   9   0    1.64    5.98
 -11  -9   0   -4.82    5.69
  11  -9   0   -0.65    7.15
 -11   9   0    4.97    6.34
  11   9   0    1.51   49.89
  11  -9   0    8.88   37.09
   0 -10   0 3669.22  149.67
   0  10   0 3681.18  147.60
  -2 -10   0 1109.79   43.61
  -2  10   0 1156.81   61.09
  -2 -10   0 1040.14   61.75
   2  10   0 1135.85   44.65
   2  10   0 1117.21   44.22
  -2  10   0 1093.79   42.86
   2 -10   0 1119.48   43.01
   2 -10   0 1139.89   57.64
   2  10   0 1200.45   62.06
   4 -10   0 1521.71   58.68
  -4 -10   0 1542.83   59.33
   4 -10   0 1551.10   77.61
  -4  10   0 1529.55   58.00
   4  10   0 1576.14   60.75
  -4 -10   0 1576.76   85.10
   4  10   0 1672.21   83.77
  -4  10   0 1511.93   82.32
  -6  10   0   89.54    8.57
   6  10   0  106.49   26.80
   6  10   0   88.63   10.93
   6 -10   0   60.58   24.57
  -6  10   0   96.97    8.66
  -6 -10   0   91.66    8.65
   6 -10   0  106.21   25.46
  -6 -10   0   93.56    9.70
   6 -10   0  100.32   10.94
  -6 -10   0  153.18   34.64
  -8 -10   0  144.66   39.44
   8  10   0  183.76   40.45
   8 -10   0  145.38   14.01
  -8 -10   0  194.21   14.64
   8 -10   0  166.44   35.27
  -8  10   0  195.43   12.91
   8 -10   0  186.02   42.53
   8  10   0  187.44   15.95
  -8 -10   0  176.28   13.58
  -8  10   0  198.31   13.67
  10  10   0  301.40   58.14
 -10 -10   0  162.53   14.53
  10 -10   0  149.55   17.96
 -10 -10   0  180.42   15.84
  10 -10   0  175.21   44.96
  10 -10   0  204.25   54.31
 -10  10   0  167.34   14.29
 -10  10   0  200.11   13.87
   1 -11   0  340.22   16.66
   1 -11   0  361.03   30.29
   1  11   0  321.53   28.96
  -1 -11   0  336.83   31.15
  -1  11   0  367.43   16.99
  -1 -11   0  330.13   16.82
  -1  11   0  363.81   29.87
   1  11   0  338.30   17.18
  -3  11   0  256.79   13.85
  -3  11   0  227.38   27.86
   3 -11   0  277.11   14.61
   3  11   0  311.88   30.84
   3 -11   0  313.60   27.02
  -3 -11   0  267.48   31.05
  -3 -11   0  285.29   15.18
   3  11   0  241.73   15.24
  -5 -11   0   66.24    8.79
  -5 -11   0   60.79   23.68
   5 -11   0   48.40    7.67
  -5  11   0   40.43   19.21
   5  11   0   48.74    8.13
  -5  11   0   39.82    6.41
  -5  11   0   51.50    6.93
   5  11   0   11.88   16.35
   5 -11   0   51.37   17.40
  -7 -11   0    0.45    5.31
  -7  11   0   -1.05    4.00
   7 -11   0    4.14    5.28
  -7 -11   0  -19.85   21.96
   7  11   0   19.70   22.31
   7 -11   0  -15.18   17.52
   7  11   0   -0.02    4.91
  -7 -11   0   -0.22    4.35
   7 -11   0   -1.67   23.28
  -7  11   0    0.40    4.09
  -9  11   0   33.22    7.84
  -9 -11   0   41.36    9.42
   9 -11   0  114.00   42.06
   9  11   0   34.79   38.70
  -9 -11   0   47.92   39.10
   9 -11   0   38.46    9.74
  -9 -11   0   48.17    9.08
   9  11   0   69.34   12.67
  -9  11   0   34.12    8.11
  11 -11   0   12.31   38.13
 -11 -11   0  -15.49   47.13
  11  11   0  -70.41   47.61
 -11 -11   0   14.49    7.16
 -11  11   0   10.20    6.76
  11 -11   0    5.90    7.56
 -11  11   0   13.13    6.21
 -11 -11   0   -2.64    6.88
  11 -11   0  -20.97   50.59
   0 -12   0 2215.62  103.04
   0  12   0 2255.29  101.12
   0  12   0 2210.39   82.21
   2  12   0  945.76   39.07
  -2  12   0  954.07   57.24
   2  12   0  921.86   39.21
   2  12   0 1040.71   58.76
  -2  12   0  867.58   37.18
   2 -12   0  952.09   37.67
   2 -12   0  928.00   54.10
  -2 -12   0  925.53   58.68
  -2 -12   0  953.35   38.18
   4  12   0  579.86   47.61
  -4 -12   0  574.82   49.29
   4 -12   0  663.91   28.28
  -4 -12   0  649.91   28.71
  -4  12   0  652.06   27.49
   4  12   0  637.09   29.80
  -4  12   0  692.37   52.39
   4 -12   0  578.29   43.22
  -6 -12   0  157.74   12.87
   6  12   0  185.76   35.39
   6  12   0  168.14   14.09
   6 -12   0  155.74   12.49
  -6  12   0  155.88   11.87
   6 -12   0  124.47   26.07
  -6  12   0  169.51   11.57
  -6 -12   0  157.56   37.46
  -8  12   0  264.95   16.32
  -8  12   0  233.95   15.09
   8 -12   0  251.02   17.59
   8 -12   0  190.10   35.78
   8 -12   0  168.37   42.36
   8  12   0  241.98   18.96
  -8 -12   0  289.13   56.66
   8  12   0  158.23   45.25
  -8 -12   0  227.17   15.77
  -8 -12   0  223.97   16.90
  10  12   0   82.23   43.35
 -10  12   0  109.58   12.46
 -10 -12   0   96.66   13.42
  10 -12   0   92.69   14.46
 -10  12   0  137.81   12.20
 -10 -12   0  102.15   12.82
  10 -12   0  124.49   54.06
  10 -12   0   65.22   36.01
 -10 -12   0    2.97   44.03
  -1  13   0  100.18   20.91
  -1 -13   0   64.17   19.62
   1 -13   0   91.12   20.60
  -1 -13   0   94.34    8.66
   1 -13   0   97.56    8.44
   1  13   0  106.25   22.42
  -1  13   0   79.17    8.13
   1  13   0   87.00    8.58
   3  13   0   83.63   21.91
  -3 -13   0  101.85    9.86
  -3  13   0  110.64    9.29
   3 -13   0  160.41   26.11
   3 -13   0  103.11    9.50
  -3  13   0   97.46   22.97
   3  13   0  112.07   10.30
  -3 -13   0  150.04   29.85
   5  13   0   -1.81    4.27
  -5  13   0    6.96    4.62
   5  13   0   -8.93   15.37
  -5 -13   0    1.59    4.53
  -5 -13   0    6.81   18.82
   5 -13   0    1.80    4.57
  -5  13   0   16.69   16.15
   5 -13   0   -2.56   13.05
   7 -13   0   24.06   29.00
   7 -13   0    1.40    5.50
  -7  13   0    1.79    4.81
   7  13   0    3.70    5.94
  -7 -13   0    6.17    6.27
   7 -13   0    2.00   19.05
  -7 -13   0  -34.26   22.99
  -7 -13   0    2.18    4.60
  -7  13   0    2.88    5.00
   7  13   0    1.06   25.90
  -9  13   0   39.83    8.63
  -9 -13   0   33.07   37.63
  -9  13   0   33.87    8.01
   9  13   0   40.44   38.92
   9 -13   0   -0.96   28.89
  -9 -13   0   24.25    8.61
   9 -13   0   33.56    9.84
   9 -13   0   94.19   45.18
  -9 -13   0   41.30    9.24
 -11 -13   0   18.78   10.54
  11 -13   0    3.95    7.72
  11  13   0    6.82   57.60
 -11 -13   0    7.59   53.70
 -11 -13   0   10.86    7.81
 -11  13   0    3.89    6.17
  11 -13   0    4.93   44.06
 -11  13   0   -1.07    4.26
  11 -13   0   81.87   59.51
   0 -14   0  690.77   31.59
   0  14   0  779.35   32.74
   0 -14   0  766.67   52.54
   0  14   0  789.94   51.09
   2  14   0  121.97   11.06
  -2 -14   0  120.30   26.05
   2  14   0  137.20   11.51
   2 -14   0  132.00   25.61
  -2  14   0  155.27   26.94
  -2 -14   0  163.72   11.36
   2  14   0  113.76   24.96
  -2  14   0  135.52   10.39
   2 -14   0  138.29   10.39
   4  14   0  640.89   31.87
  -4  14   0  654.36   53.83
  -4 -14   0  678.88   30.64
   4  14   0  835.97   57.11
   4 -14   0  679.00   30.36
  -4  14   0  656.83   29.46
   4 -14   0  672.39   48.95
  -4 -14   0  597.35   55.72
  -6  14   0  227.83   14.87
   6  14   0  250.05   18.03
  -6 -14   0  232.53   16.15
   6 -14   0  204.21   34.28
   6  14   0  190.34   38.47
   6 -14   0  211.65   15.72
  -6  14   0  241.45   15.40
  -6 -14   0  249.54   45.75
  -6  14   0  205.39   41.86
   8 -14   0   48.94   33.59
   8 -14   0  154.67   35.40
  -8  14   0  166.10   13.31
   8  14   0  198.86   50.73
  -8  14   0  138.16   13.38
   8  14   0  168.33   16.60
  -8 -14   0  163.70   13.84
   8 -14   0  146.52   14.96
  -8 -14   0  151.26   14.62
  -8 -14   0  101.32   40.04
 -10 -14   0   61.29   54.44
  10  14   0   81.56   46.70
 -10 -14   0   81.00   12.03
 -10  14   0   92.68   11.34
  10 -14   0   94.97   15.19
 -10 -14   0   99.85   13.47
  10 -14   0   16.66   36.00
 -10  14   0  103.42   13.10
  10 -14   0  211.99   63.36
   1 -15   0   21.17    6.16
   1  15   0   22.15   15.80
  -1  15   0   37.12    6.61
  -1 -15   0   21.29    6.38
   1 -15   0   22.83   16.15
  -1 -15   0   11.20   14.36
   1  15   0   25.05    6.33
  -1  15   0    8.68   14.88
   3 -15   0   22.52   15.23
  -3  15   0   39.14   20.05
  -3 -15   0   24.07    6.63
  -3  15   0   26.60    6.37
   3  15   0   33.89    8.01
  -3 -15   0   10.71   18.55
   3  15   0   39.52    7.85
   3 -15   0   20.88    6.30
   3  15   0   -6.93   14.26
  -5 -15   0   56.28   28.99
   5 -15   0   48.80    8.93
  -5  15   0   59.77    8.69
  -5  15   0   40.82   24.21
   5  15   0   51.29    9.65
  -5 -15   0   77.58   11.08
   5 -15   0   27.84   18.41
   5  15   0   91.16   29.72
   7 -15   0  -37.09   31.90
  -7 -15   0   33.72    8.64
   7 -15   0   24.21    8.36
   7 -15   0   41.75   21.71
  -7  15   0   30.98    7.77
  -7 -15   0    8.21   26.91
   7  15   0   78.13   32.01
   7  15   0   36.86    9.02
  -7  15   0   18.66    6.94
  -9 -15   0   18.05    7.79
   9 -15   0   31.55   30.25
  -9  15   0   26.31    8.22
   9  15   0   18.34   37.85
   9 -15   0   15.19   44.75
  -9 -15   0    3.05   40.80
  -9  15   0   27.43    8.27
  -9 -15   0   14.64    8.38
   9 -15   0   39.56   10.61
   0 -16   0  305.24   17.21
   0  16   0  285.29   17.35
   0 -16   0  280.36   35.09
   0  16   0  317.78   34.67
  -2  16   0  346.15   37.58
  -2  16   0  352.92   19.05
   2  16   0  337.37   20.02
  -2 -16   0  347.14   48.03
   2 -16   0  361.22   19.35
   2  16   0  337.36   20.44
   2 -16   0  320.70   35.46
  -2 -16   0  355.00   19.57
   2  16   0  363.95   39.26
   4 -16   0  474.12   23.60
   4  16   0  434.21   24.80
  -4 -16   0  400.39   48.61
  -4  16   0  385.25   46.62
   4 -16   0  379.16   38.91
  -4 -16   0  439.12   23.26
   4  16   0  412.87   45.07
  -4  16   0  430.84   22.29
  -6  16   0  106.74   35.11
  -6  16   0  130.87   12.19
  -6 -16   0  128.58   38.37
   6 -16   0   87.00   26.05
   6 -16   0  119.69   14.08
  -6 -16   0  116.28   13.79
  -6  16   0  125.25   12.42
   6  16   0  106.23   33.57
   6  16   0  123.73   15.75
   8 -16   0  130.83   48.69
   8 -16   0  142.26   16.89
  -8  16   0  155.72   13.74
  -8 -16   0  129.65   13.59
  -8 -16   0  128.09   50.43
  -8  16   0  146.73   14.05
  -8 -16   0  137.27   15.93
   8  16   0  156.82   45.47
  10 -16   0   35.46   39.87
  10 -16   0    5.77   59.54
  10 -16   0   40.59   11.56
 -10  16   0   49.16   10.34
 -10 -16   0   67.43   12.17
  10  16   0  -59.75   58.85
 -10 -16   0  -29.35   52.07
 -10  16   0   74.57   10.71
  -1 -17   0   77.91   10.28
   1 -17   0   72.35    9.80
  -1  17   0   96.87   11.84
   1  17   0  122.95   27.77
  -1 -17   0   76.16   24.95
  -1  17   0  109.76   27.28
   1 -17   0   73.53   23.04
   1  17   0   93.72   11.57
   1  17   0   83.17   10.63
  -3 -17   0   93.72   30.95
  -3  17   0   87.88   11.17
   3  17   0   81.01   26.34
  -3 -17   0   80.85   10.88
   3  17   0  100.22   13.12
   3  17   0   74.27   10.58
   3 -17   0   70.09    9.79
  -3  17   0   96.51   29.40
   3 -17   0  108.19   24.82
  -5  17   0   69.12   28.57
   5  17   0   60.75   28.57
   5 -17   0   85.24   11.61
  -5 -17   0   96.03   12.35
   5 -17   0   61.69   24.95
  -5 -17   0   55.75   31.19
  -5  17   0  101.07   11.90
   5  17   0   69.23   11.94
  -7  17   0   30.11    8.11
   7 -17   0   39.12   26.31
  -7  17   0   26.04    8.35
  -7 -17   0   42.09    9.82
   7 -17   0   28.02    8.73
   7  17   0   10.89   30.10
  -7 -17   0   15.51   32.41
   9 -17   0   77.04   55.33
   9 -17   0    7.47    8.69
  -9 -17   0    9.97    8.45
   9 -17   0   53.35   36.62
   9  17   0  -20.42   40.01
  -9  17   0    7.52    6.89
  -9 -17   0  -32.93   47.97
  -9  17   0    7.53    7.47
   0  18   0  571.65   29.37
   0  18   0  715.54   53.79
   0 -18   0  640.07   29.40
   0 -18   0  535.21   50.86
  -2 -18   0  120.61   12.00
  -2 -18   0   63.70   25.53
   2  18   0  100.01   27.77
  -2  18   0  119.00   11.32
   2  18   0  111.02   12.26
   2 -18   0   68.75   22.02
  -2  18   0  106.40   28.40
   2 -18   0   95.70   11.40
   2  18   0  126.37   14.39
   4 -18   0  218.89   16.00
   4 -18   0  185.22   33.55
  -4 -18   0  170.40   14.60
   4  18   0  162.58   16.02
   4  18   0  213.26   40.46
  -4  18   0  229.87   43.59
  -4  18   0  195.49   14.77
  -4 -18   0  203.53   42.29
   6 -18   0  133.49   32.93
  -6  18   0  191.76   45.64
   6  18   0  208.32   44.13
  -6 -18   0  127.10   43.56
  -6 -18   0  156.22   15.35
   6 -18   0  149.61   15.08
  -6  18   0  149.12   13.72
  -8  18   0   76.06   11.34
   8 -18   0   49.11   28.87
  -8  18   0   61.98   11.51
   8  18   0   66.50   42.22
   8 -18   0   33.90   49.30
  -8 -18   0   13.17   43.00
  -8 -18   0   70.40   12.67
   8 -18   0   54.23   11.79
  10 -18   0   63.21   60.39
  10  18   0  -15.63   57.94
 -10 -18   0  -15.74   65.18
 -10  18   0   74.24    9.87
  10 -18   0   25.69   11.51
 -10  18   0   34.10   10.09
 -10 -18   0   29.69   10.62
   1  19   0   61.56   10.53
  -1 -19   0   48.58    9.12
  -1  19   0   67.55   10.64
  -1  19   0   79.64   27.63
   1  19   0   63.35   11.31
   1  19   0   62.13   24.41
   1 -19   0   61.57   10.36
  -1 -19   0   70.55   30.31
   1 -19   0   83.90   27.48
   3  19   0   35.25    9.22
  -3  19   0   46.46   24.36
   3 -19   0   31.69    8.10
   3 -19   0    2.70   18.92
   3  19   0   18.28   22.14
  -3  19   0   22.15    7.58
  -3 -19   0   31.25    8.44
  -3 -19   0   28.40   25.74
  -5  19   0   16.95    7.64
   5  19   0    7.05    7.62
  -5  19   0   -1.27   30.03
  -5 -19   0  -20.00   29.83
  -5 -19   0   18.97    8.17
   5  19   0   40.57   29.69
   5 -19   0   22.16    8.47
   5 -19   0   34.10   24.54
  -7 -19   0    5.07    7.58
  -7 -19   0   27.72   40.07
  -7  19   0   10.12    7.28
  -7  19   0   14.36    7.62
  -7  19   0   24.91   40.24
   7  19   0    8.46   35.51
   7 -19   0    4.12    6.96
  -9 -19   0    4.81    8.66
  -9  19   0    9.34    8.20
   9 -19   0    4.18    8.80
  -9 -19   0   55.88   58.93
   9  19   0  -18.59   48.31
   9 -19   0    2.28   33.12
  -9  19   0    5.56    7.07
   9 -19   0  -17.70   62.61
   0  20   0  246.99   18.62
   0 -20   0  199.61   39.71
   0 -20   0  280.90   18.52
   0  20   0  311.21   44.01
   2  20   0  129.64   33.23
   2  20   0  130.99   14.56
  -2  20   0  169.47   36.63
   2 -20   0  161.62   13.82
   2 -20   0  156.56   35.14
  -2 -20   0   90.41   33.78
   2  20   0  157.80   14.94
  -2  20   0  140.77   14.00
  -4 -20   0   97.16   13.21
   4  20   0   75.59   31.26
  -4 -20   0  110.46   36.72
  -4  20   0   89.92   12.10
   4 -20   0  112.59   30.34
   4 -20   0   80.75   12.56
  -4  20   0  114.03   38.76
  -6 -20   0    8.93   35.80
  -6  20   0   31.41   41.90
   6 -20   0   37.50    9.98
  -6  20   0   59.68   10.58
   6 -20   0   44.24   28.24
   6  20   0   46.90   34.90
  -6 -20   0   40.14   10.44
  -8 -20   0   50.24   11.77
   8 -20   0   25.47   36.58
   8  20   0   69.85   44.44
  -8  20   0   35.28    9.77
  -8 -20   0  -56.12   50.21
   8 -20   0   54.57   13.06
   8 -20   0   13.36   57.16
  -8  20   0   25.44    9.13
  -1 -21   0   53.48   10.31
   1 -21   0   25.46    8.40
  -1 -21   0   48.93   30.00
   1  21   0   16.36   22.19
   1  21   0   41.28    9.88
  -1  21   0   40.23    9.33
   1  21   0   45.49   10.49
   1 -21   0   10.18   24.22
  -1  21   0   12.97   22.91
  -3  21   0    2.43    6.32
  -3 -21   0    0.85    6.33
   3 -21   0    4.44   22.29
   3 -21   0   -0.75    6.37
  -3 -21   0   -8.09   26.76
   3  21   0   19.14   27.15
  -3  21   0    6.68   24.56
  -5 -21   0    0.62   32.94
  -5  21   0   12.93    7.64
   5 -21   0  -12.92   25.11
   5  21   0   -1.04   31.10
   5 -21   0    8.70    7.62
  -5  21   0   28.92   32.44
  -5 -21   0    6.92    7.83
  -7  21   0   30.47   44.98
  -7  21   0   10.13    7.53
  -7 -21   0  -43.63   40.57
   7 -21   0   31.61   35.71
   7 -21   0    6.21    7.68
   7  21   0  -35.42   37.31
  -7  21   0   10.38    8.05
  -7 -21   0    7.01    8.34
   9 -21   0    6.14    9.27
  -9  21   0    7.30    8.06
  -9 -21   0   19.71    9.85
   9  21   0   -1.23   50.99
  -9 -21   0  -70.25   61.68
   9 -21   0  -44.77   68.49
   9 -21   0  -29.98   38.53
   0  22   0  174.37   39.54
   0  22   0  262.55   19.47
   0 -22   0  239.96   18.05
   0 -22   0  151.12   39.54
   2  22   0   81.01   30.89
   2 -22   0   62.86   29.09
   2  22   0   79.52   13.09
   2 -22   0   72.67   11.49
  -2  22   0   53.42   27.39
   2  22   0   94.40   13.67
  -2 -22   0   28.84   27.59
  -2 -22   0   70.98   11.47
  -2  22   0   93.86   13.15
  -4  22   0   42.78   33.77
   4 -22   0   20.77   26.67
  -4  22   0   98.51   13.56
   4 -22   0   82.47   13.50
   4  22   0   -0.33   31.98
  -4 -22   0   65.89   37.76
  -4 -22   0   71.06   12.28
  -6 -22   0   63.85   44.15
  -6  22   0   68.91   11.29
  -6  22   0   88.36   50.50
   6  22   0   25.50   37.20
  -6 -22   0   42.13   10.64
   6 -22   0   26.56   10.16
   8 -22   0   10.69   10.00
  -8  22   0   15.78    9.17
   8  22   0   20.40   52.11
   8 -22   0   10.35   42.97
  -8 -22   0  -12.96   59.98
  -8 -22   0    2.41    8.66
  -1  23   0   66.80   12.18
   1 -23   0   51.23   10.56
  -1 -23   0   13.79   28.47
   1  23   0   45.59   31.98
   1 -23   0   22.48   28.31
  -1  23   0   83.52   31.65
   1  23   0   67.78   13.99
  -1 -23   0   53.83   11.36
  -3 -23   0    8.34    8.08
  -3  23   0    0.04   30.00
  -3 -23   0   -5.92   36.17
   3  23   0   53.11   33.17
   3 -23   0   10.01    7.94
   3 -23   0   17.14   28.23
  -3  23   0   20.35    8.85
  -5  23   0  -48.29   35.48
  -5 -23   0   19.76   40.23
   5  23   0  -14.32   37.15
  -5  23   0    9.63    9.15
   5 -23   0    3.76    7.80
  -5 -23   0   11.69    8.76
   7 -23   0   12.27   35.34
   7  23   0   43.36   46.89
  -7 -23   0    2.95   51.56
  -7  23   0    6.78   54.74
  -7  23   0   -0.89    7.98
  -7 -23   0   22.80    9.62
   7 -23   0   -0.99    8.12
   0  24   0  122.56   39.02
   0 -24   0  103.44   36.46
   0 -24   0   81.15   13.03
  -2  24   0   88.49   35.36
  -2 -24   0   50.60   34.38
   2  24   0   65.52   32.70
   2 -24   0   48.20   10.83
   2 -24   0   54.90   32.03
  -2 -24   0   62.26   11.72
   4  24   0   23.75   36.50
   4 -24   0   46.23   10.65
  -4  24   0   43.53   38.20
   4 -24   0    6.44   31.07
  -4 -24   0   19.91   39.01
  -4 -24   0   62.38   11.95
   6 -24   0   10.56   34.58
  -6 -24   0  -38.18   52.00
   6 -24   0   41.78   11.84
  -6 -24   0   19.35   10.45
   6  24   0  -51.05   40.15
  -6  24   0   86.68   57.70
   1 -25   0   -9.41   30.76
  -1 -25   0   58.65   34.95
   1  25   0   -4.23   30.71
  -1 -25   0    1.76    7.54
   1 -25   0   14.81    8.84
  -1  25   0   55.34   33.78
   3 -25   0    8.73    8.76
  -3 -25   0    1.03    8.08
   3  25   0    3.53   33.68
   3 -25   0    7.61   31.79
  -3  25   0   43.68   39.52
  -3 -25   0  -28.46   38.31
  -5 -25   0    8.98    9.35
  -5 -25   0   22.78   46.13
   5 -25   0   13.82    9.55
   5 -25   0   43.59   42.71
   5  25   0  -22.68   40.50
  -5  25   0  -24.65   43.11
  -7 -25   0    9.97   66.56
  -7 -25   0   -6.30    8.21
   7 -25   0    9.82   10.07
  -7  25   0    3.13    8.12
  -7  25   0  -70.82   57.28
   7  25   0  103.13   58.53
   7 -25   0   64.08   45.79
   0 -26   0   37.54   10.54
   0 -26   0    7.30   40.69
   0  26   0   50.92   36.88
  -2 -26   0    5.73    8.46
  -2 -26   0   -6.33   38.63
   2  26   0   37.94   34.01
   2 -26   0   -1.40   32.44
   2 -26   0    6.46    8.36
  -2  26   0   82.89   40.50
   4  26   0    1.24   40.34
   4 -26   0   35.03   10.99
  -4 -26   0   11.92   50.64
  -4 -26   0   30.60   10.86
  -4  26   0  -17.29   48.76
   6 -26   0   10.85   44.16
   6  26   0  -17.99   55.38
  -6 -26   0   38.31   63.26
   6 -26   0   18.48   10.82
  -6 -26   0   48.23   12.34
  -6  26   0   20.47   62.15
   1 -27   0    5.00    8.29
   1 -27   0   23.56   37.22
  -1 -27   0    2.36    8.49
   1  27   0   55.64   40.62
  -1 -27   0   15.90   40.92
  -1  27   0    6.67   36.64
  -3  27   0   72.03   52.25
  -3 -27   0  -37.07   44.92
   3 -27   0   -1.98    7.96
   3  27   0  -24.07   38.87
  -3 -27   0    3.49    8.99
   5 -27   0   12.09   44.85
   5 -27   0   -5.33    7.91
   5  27   0  -25.60   48.26
  -5 -27   0    1.48    9.03
  -5  27   0   34.23   55.77
  -5 -27   0  -12.40   61.27
   0  28   0   29.01   41.32
   0 -28   0   31.09   10.54
   0 -28   0   -5.95   43.10
   2 -28   0   -1.18    8.54
  -2  28   0    4.53   44.02
   2  28   0  -40.31   39.81
  -2 -28   0   14.94   49.90
  -2 -28   0   10.72    9.33
   4  28   0   58.43   55.25
  -4  28   0   27.46   55.15
  -4 -28   0    3.12   58.29
  -4 -28   0   12.21   10.23
   4 -28   0    4.85   45.48
   4 -28   0    5.91    9.48
   1 -29   0   14.95   10.15
  -1 -29   0    5.09    9.02
   1  29   0   22.66   45.00
  -1 -29   0  -36.46   47.72
  -1  29   0  -14.12   44.80
   3 -29   0  -64.08   52.54
  -3 -29   0   10.23    9.79
  -3  29   0  -11.95   58.47
   3 -29   0    5.08    9.57
  -3 -29   0   38.69   59.35
   3  29   0  -39.83   46.25
   0  30   0   97.54   50.96
   2  30   0   16.77   57.42
   2 -30   0    7.33   51.25
  -2  30   0  -40.91   59.61
  -2 -30   0  -46.84   59.17
   2 -30   0    4.09    9.14
  -2 -30   0   20.77   11.21
   0   0   1  563.89   23.49
   0   0  -1  530.34   25.32
   2   0   1  168.51   12.48
  -2   0  -1  188.42    6.96
   2   0   1  182.74    7.44
  -2   0   1  164.63   16.41
  -2   0   1  179.78    9.00
   2   0  -1  184.92   17.08
  -2   0  -1  211.49    7.73
  -2   0  -1  218.40    7.21
   2   0  -1  180.75    8.56
   2   0   1  185.14    7.54
  -2   0   1  186.67    8.62
  -2   0  -1  156.92   12.34
   2   0  -1  176.23    8.94
   4   0  -1  559.92   22.50
   4   0  -1  549.83   40.34
   4   0   1  534.36   21.16
  -4   0  -1  545.89   20.48
  -4   0   1  539.02   22.26
  -4   0  -1  500.41   34.22
  -4   0   1  485.49   38.13
   4   0   1  591.43   35.68
   4   0   1  561.93   21.42
   4   0  -1  522.10   22.73
  -4   0  -1  537.76   21.01
  -4   0   1  483.02   22.48
  -6   0   1  102.29   27.00
  -6   0  -1  105.11    7.54
   6   0  -1   85.40   24.12
  -6   0  -1   80.63   21.25
  -6   0   1  114.40    9.26
   6   0   1  103.03    7.78
   6   0   1  121.89   24.12
   6   0   1  117.26    7.93
  -6   0   1   84.79    7.65
   6   0  -1  100.94    8.69
  -6   0  -1   97.61    6.72
   6   0  -1   95.37    8.69
  -8   0  -1   77.34   27.17
   8   0  -1   59.05   26.37
  -8   0  -1   44.69    6.17
  -8   0   1   63.90    9.14
   8   0   1   38.67   22.02
   8   0   1   43.21    7.44
  -8   0   1   43.93   25.25
   8   0   1   51.38    7.77
  -8   0  -1   56.05    8.04
  -8   0   1   58.91   10.08
   8   0  -1   55.16    9.07
   8   0  -1   52.24    8.72
 -10   0  -1   31.38    5.94
  10   0  -1   59.21   37.31
  10   0   1   45.07   30.40
 -10   0  -1   19.20   28.41
 -10   0   1   11.86    7.43
  10   0   1   29.01    7.43
 -10   0  -1   17.45    6.63
 -10   0  -1   19.64    6.16
  10   0  -1   22.75    8.22
  10   0   1   16.28    6.80
 -10   0   1   40.10   34.66
 -10   0   1   19.18    7.24
 -12   0   1    6.25    6.61
  12   0  -1  -36.26   53.88
 -12   0   1   13.17    7.81
  12   0   1   31.27   45.91
  12   0   1   21.21    8.10
 -12   0  -1   -0.98    3.51
  12   0   1   62.20   50.30
  -1   1   1 2201.52   86.09
   1  -1   1 2216.92   77.59
  -1  -1  -1 2090.62   78.84
   1   1  -1 2267.03   85.66
  -1  -1   1 2227.86   85.68
  -1   1  -1 2170.51   77.88
   1  -1  -1 2308.20   86.91
   1   1   1 2137.63   78.74
   3  -1   1 1898.05   77.91
  -3  -1  -1 1819.67   77.82
  -3   1   1 1790.57   84.01
   3   1  -1 2057.05   85.97
  -3  -1   1 1847.75   84.55
   3   1   1 1750.11   76.25
  -3   1  -1 1800.60   77.45
   3  -1  -1 1846.28   84.53
   5   1  -1 1619.57   61.63
   5   1  -1 1656.08   60.87
  -5  -1  -1 1621.01   80.91
  -5   1   1 1633.79   87.12
   5  -1   1 1621.19   79.76
   5   1  -1 1671.69   86.52
  -5   1  -1 1629.21   80.96
   5   1   1 1758.25   80.82
   5  -1  -1 1592.91   61.15
  -5  -1   1 1619.88   60.61
   5  -1  -1 1567.15   85.65
  -5  -1   1 1593.92   86.52
   7  -1   1  451.29   43.55
   7  -1   1  447.19   21.02
  -7   1   1  447.23   22.19
   7  -1   1  436.92   20.18
   7   1  -1  416.51   44.89
  -7  -1  -1  423.74   19.11
   7   1  -1  428.00   21.58
  -7   1   1  465.27   49.34
  -7  -1  -1  402.61   42.74
  -7  -1  -1  448.85   20.71
   7   1  -1  431.64   22.28
  -7   1   1  446.35   21.14
  -7   1  -1  417.24   43.03
   7   1   1  402.41   20.42
  -7  -1   1  491.73   22.87
  -7   1  -1  434.54   20.14
   7  -1  -1  485.75   47.75
   7  -1  -1  448.35   22.19
  -7  -1   1  449.02   21.33
   7   1   1  508.78   44.61
   7   1   1  419.64   20.61
   7  -1  -1  454.59   22.18
  -7   1  -1  456.99   19.10
  -7  -1   1  481.26   48.70
  -9   1   1  303.97   53.80
  -9  -1  -1  285.26   47.55
  -9   1   1  305.31   19.11
   9  -1   1  302.60   18.16
  -9  -1  -1  297.38   15.50
   9  -1   1  319.25   17.38
   9   1  -1  377.90   58.40
   9  -1   1  342.99   51.58
  -9  -1  -1  252.98   17.00
   9   1  -1  337.17   19.98
  -9   1   1  305.52   17.76
  -9  -1  -1  319.48   17.11
   9  -1  -1  325.47   19.26
  -9  -1   1  317.11   19.61
  -9  -1   1  314.51   17.97
   9  -1  -1  315.39   19.28
   9   1   1  348.79   53.57
  -9  -1   1  329.99   57.00
  -9   1  -1  305.41   15.50
  -9   1  -1  296.66   17.23
   9   1   1  293.76   17.70
   9  -1  -1  322.13   54.87
 -11   1   1  151.86   13.19
  11  -1   1   84.13   35.30
 -11  -1  -1  160.36   10.88
  11   1  -1  151.26   14.95
 -11  -1  -1  138.93   11.72
  11  -1   1  154.33   46.58
 -11   1   1  142.79   16.79
  11  -1   1  171.67   13.46
  11  -1   1  129.78   13.75
 -11  -1  -1  133.80   13.53
  11   1  -1  133.79   49.60
 -11   1  -1  119.29   11.37
  11   1   1  172.74   51.19
 -11  -1   1  141.29   13.19
 -11  -1   1  126.08   15.53
  11  -1  -1  163.47   15.11
  11   1   1  167.57   14.19
 -11   1  -1  159.87   10.46
  11  -1  -1  185.05   60.79
 -11   1  -1  127.49   13.09
 -11  -1   1   59.28   41.27
   0  -2   1  691.97   29.30
   0   2  -1  677.12   29.09
   0   2   1  728.08   29.59
   2  -2   1   75.48    8.05
   2   2  -1   75.13   13.90
   2   2  -1   60.14    4.82
  -2  -2  -1   72.79    3.68
   2  -2   1   79.93    3.78
  -2   2   1   72.88    4.73
  -2  -2  -1   59.10    8.85
  -2   2   1   66.16    4.84
   2  -2   1   68.43    8.67
  -2  -2  -1   81.75    4.02
  -2   2  -1   80.30    3.52
   2  -2  -1   72.27    4.74
  -2  -2   1   77.35   13.01
   2   2   1   74.06    4.43
   2   2   1   79.06    4.38
   2  -2  -1   55.27   12.08
  -2  -2   1   59.03    4.77
   2  -2  -1   65.61    4.74
   2   2   1   70.32    8.64
  -4  -2  -1   91.55    6.34
  -4  -2  -1   75.73   15.88
   4   2  -1   93.55    7.27
  -4   2   1  127.69   22.80
   4  -2   1  116.39   18.70
   4  -2   1   97.13    6.13
   4   2  -1  119.00   22.11
  -4   2   1   97.27    6.85
  -4  -2  -1   85.23    5.55
  -4  -2  -1  103.35    6.23
  -4   2   1  100.97    7.28
   4  -2   1   90.98    5.50
   4   2   1  134.17   18.77
  -4  -2   1  126.75   22.26
  -4  -2   1   99.23    6.86
   4  -2  -1  125.34   22.19
  -4   2  -1  101.38    5.42
   4   2   1   82.25    6.11
  -4  -2   1   86.27    7.18
  -4   2  -1   96.48    5.55
   4  -2  -1   92.26    6.91
   4  -2  -1   85.78    6.72
   4   2   1  100.54    6.19
  -6  -2  -1   43.86    5.32
   6  -2   1   46.98    5.73
  -6   2   1   29.27    6.13
   6  -2   1   62.96   19.20
  -6  -2  -1   35.41   15.82
  -6  -2  -1   29.31    5.12
   6  -2   1   38.66    5.92
   6   2  -1   39.96   19.01
  -6   2   1   43.12    6.57
  -6  -2  -1   38.81    6.10
   6   2  -1   46.12    7.98
  -6   2   1   16.40   16.10
  -6  -2   1   37.93    6.13
  -6   2  -1   38.16    4.84
   6   2   1   41.73    6.47
  -6   2  -1   30.36   15.94
   6   2   1   49.29    6.62
   6  -2  -1   40.79    6.22
  -6  -2   1   40.49    6.61
   6  -2  -1   47.29   21.65
  -6   2  -1   43.39    5.74
   6  -2  -1   24.20    5.60
  -6  -2   1   35.79   18.51
   6   2   1   64.69   18.55
  -8   2   1   52.91    9.31
   8  -2   1   42.60    7.14
  -8  -2  -1   54.93   23.69
   8   2  -1   69.52   28.10
   8   2  -1   55.90    9.77
  -8   2   1   35.29   25.81
  -8   2   1   56.13    8.27
  -8  -2  -1   62.16    8.63
  -8  -2  -1   49.25    6.75
   8  -2   1   59.49    8.74
   8  -2   1   68.34   26.97
  -8  -2  -1   53.33    7.94
   8   2   1   52.73   25.96
  -8   2  -1   54.21    7.66
   8  -2  -1   55.52    8.37
  -8   2  -1   51.59    6.41
  -8  -2   1   43.96    7.61
   8  -2  -1   74.16   29.94
   8  -2  -1   53.21    9.21
  -8  -2   1   67.49   28.00
  -8  -2   1   51.71    8.82
   8   2   1   48.34    7.88
  10  -2   1   22.61    6.24
 -10  -2  -1   13.45    5.10
 -10  -2  -1   24.46    6.31
  10  -2   1   13.22    6.81
 -10  -2  -1   13.91    6.40
  10   2  -1   15.50    7.21
  10  -2   1    6.04   29.26
 -10  -2  -1   33.58   30.94
  10  -2   1   20.92   33.72
 -10   2   1   11.07    6.26
  10   2  -1   -0.97   30.45
 -10   2   1    0.90    5.46
 -10  -2   1    5.04    6.82
  10   2   1    4.50   31.08
 -10  -2   1   14.25    6.77
  10   2   1   12.01    6.84
 -10   2  -1   10.32    5.78
  10  -2  -1   16.08    6.91
 -10  -2   1  -12.38   32.80
  10  -2  -1   12.96    6.92
 -10   2  -1   17.63    5.42
  10  -2  -1   48.16   33.81
  12  -2   1  -61.61   59.59
  12   2  -1  109.44   53.36
 -12  -2  -1   18.04    5.78
 -12   2   1   20.04    7.33
 -12   2   1   16.90    8.60
  12  -2   1   15.36   49.85
  12  -2  -1   22.64    8.71
 -12  -2   1   18.94    7.22
  12   2   1   60.05   45.46
 -12  -2   1   22.51    9.34
 -12  -2   1   32.37   51.97
  12   2   1   17.98    8.13
 -12   2  -1    9.31    6.56
  12  -2  -1  116.33   63.22
  12  -2  -1   -8.75   46.48
   1  -3   1 6142.64  219.32
  -1   3   1 6314.69  225.30
   1   3  -1 6192.74  224.86
   1   3   1 6141.03  221.17
  -1   3  -1 6077.85  219.28
   1  -3  -1 6292.75  224.43
  -1  -3   1 6466.82  225.91
   3  -3   1  350.05   14.32
  -3   3   1  343.89   15.77
   3   3  -1  351.87   16.18
  -3  -3  -1  367.54   14.68
  -3   3   1  330.74   15.16
  -3  -3  -1  376.68   14.36
   3  -3   1  379.91   23.53
  -3  -3  -1  335.24   24.54
   3  -3   1  361.65   25.09
   3   3  -1  362.73   28.13
  -3   3  -1  365.67   13.79
   3  -3  -1  345.41   27.13
   3  -3  -1  370.74   15.68
  -3  -3   1  328.18   15.88
  -3  -3   1  348.79   15.27
   3   3   1  362.80   24.40
   3   3   1  358.31   15.19
  -3  -3   1  349.78   28.77
  -3   3  -1  354.29   13.89
   3  -3  -1  380.79   15.90
   3  -3  -1  370.31   29.48
   5  -3   1 1248.02   45.33
  -5   3   1 1254.22   47.88
  -5   3   1 1246.44   46.91
  -5  -3  -1 1267.42   46.22
  -5  -3  -1 1209.08   45.54
   5  -3   1 1332.88   65.02
  -5  -3  -1 1236.92   46.82
   5  -3   1 1177.82   65.93
  -5  -3  -1 1151.06   66.52
   5   3  -1 1297.68   71.84
   5  -3   1 1301.11   46.53
   5   3  -1 1265.76   48.57
   5  -3  -1 1170.69   47.21
  -5   3  -1 1252.54   45.41
  -5  -3   1 1151.42   71.36
   5  -3  -1 1141.66   70.92
  -5  -3   1 1250.62   47.23
   5  -3  -1 1244.75   47.58
   5   3   1 1146.97   64.02
   5   3   1 1194.84   46.77
  -5  -3   1 1253.56   48.23
  -7   3   1  534.71   24.71
   7   3  -1  540.45   51.55
   7  -3   1  582.18   48.53
   7  -3   1  560.66   23.66
  -7   3   1  551.26   26.02
  -7  -3  -1  517.86   47.03
  -7  -3  -1  580.55   25.36
  -7  -3  -1  564.34   24.28
   7   3  -1  564.11   26.85
  -7  -3  -1  554.82   23.43
   7  -3   1  507.88   24.61
   7  -3   1  505.53   42.87
  -7   3  -1  555.90   23.67
  -7  -3   1  546.66   52.84
  -7   3  -1  563.51   22.90
  -7  -3   1  560.94   25.41
   7   3   1  499.87   45.48
   7   3   1  573.63   25.46
   7  -3  -1  509.11   51.30
   7  -3  -1  552.50   25.65
  -7  -3   1  531.89   26.30
   7  -3  -1  590.09   26.31
  -9   3   1  353.98   20.96
  -9   3   1  362.21   19.35
  -9  -3  -1  327.14   17.46
   9  -3   1  359.82   20.27
   9  -3   1  343.25   51.68
   9   3  -1  440.30   53.73
   9  -3   1  383.29   18.97
   9   3  -1  373.75   22.25
  -9  -3  -1  457.98   61.09
  -9  -3  -1  353.50   18.89
  -9  -3  -1  377.05   20.49
   9  -3   1  310.95   46.01
   9  -3  -1  396.15   55.37
  -9  -3   1  342.58   19.75
  -9   3  -1  348.54   18.71
  -9  -3   1  316.40   56.46
  -9   3  -1  360.29   17.37
   9   3   1  371.07   20.60
   9  -3  -1  278.43   51.94
   9  -3  -1  384.82   20.98
  -9  -3   1  365.44   21.69
   9   3   1  372.61   51.94
   9  -3  -1  349.11   20.88
  11   3  -1  172.40   14.92
 -11  -3  -1  133.96   10.44
 -11   3   1  141.26   13.01
  11  -3   1  148.87   16.73
  11  -3   1  154.80   42.92
  11   3  -1  170.80   55.04
 -11  -3  -1  106.12   11.29
 -11   3   1  141.74   14.49
  11  -3   1  113.02   48.09
 -11   3  -1  109.85   11.03
  11   3   1  140.45   49.79
  11  -3  -1   53.22   43.54
 -11   3  -1  154.96    9.68
  11   3   1  128.94   13.78
 -11  -3   1    3.88   45.45
  11  -3  -1  150.99   14.68
 -11  -3   1  140.42   15.26
  11  -3  -1  126.97   15.95
 -11  -3   1  171.17   13.64
 -11   3  -1  126.32   12.31
  11  -3  -1   96.10   49.87
   0  -4  -1  439.33   22.61
   0  -4   1  389.21   16.36
   0   4   1  435.71   16.29
   0  -4   1  414.74   16.47
   0   4  -1  450.48   23.21
   0  -4   1  456.25   23.39
   0   4  -1  388.23   16.38
   0  -4  -1  454.17   16.39
  -2   4   1   22.65    3.28
  -2  -4  -1   24.31    3.12
   2  -4   1   22.00    2.82
   2   4  -1   10.78    6.73
   2   4  -1   18.02    3.13
  -2   4   1   15.25    7.82
   2   4   1   30.41    3.77
  -2   4  -1   11.15    5.65
   2  -4  -1    5.69    5.60
   2   4   1   21.37    6.99
  -2  -4   1   15.91    3.20
  -2  -4   1   21.42    9.10
   2  -4  -1   22.13    3.34
  -2   4  -1   23.10    2.69
   4  -4   1   14.88    8.86
  -4  -4  -1   42.02    4.66
  -4   4   1   41.62    5.96
  -4  -4  -1   35.94    4.68
   4   4  -1   26.00   13.25
   4  -4   1   33.31   12.28
  -4   4   1   30.54    4.57
  -4  -4  -1   11.19    9.19
   4  -4   1   32.19    4.29
   4   4  -1   19.57    4.20
  -4   4  -1   39.38    3.99
  -4  -4   1   29.11   12.86
   4   4   1   57.83   14.89
   4  -4  -1   24.82   11.92
  -4   4  -1   28.64    3.53
   4  -4  -1   29.11    4.90
  -4  -4   1   23.87    4.45
  -4  -4   1   33.78    4.84
   4  -4  -1   26.33   14.07
   4   4   1   33.41    4.86
   6  -4   1   29.72   17.09
   6   4  -1   45.36   20.30
  -6   4   1   33.51    5.75
   6  -4   1   30.16    5.74
  -6  -4  -1   24.47    5.05
   6   4  -1   34.21    6.69
  -6  -4  -1   31.11    5.18
   6  -4   1   14.32   12.04
  -6   4   1   33.47    6.02
  -6  -4  -1   33.93    6.32
  -6  -4  -1   38.54   17.90
   6  -4  -1   25.05    5.62
  -6   4  -1   33.44    4.79
   6  -4  -1   34.02   18.99
   6  -4  -1   54.24   18.84
  -6  -4   1   40.35    6.30
  -6   4  -1   29.90    4.70
   6   4   1   30.18    5.76
  -6  -4   1   29.06    6.04
   6   4   1   71.74   19.59
   6  -4  -1   28.53    5.50
  -6  -4   1   22.81   17.66
   8  -4   1   41.52   24.55
  -8  -4  -1   46.70    7.99
  -8  -4  -1   43.17    6.62
   8  -4   1   59.10    9.15
  -8   4   1   54.27    8.16
   8   4  -1   58.76   10.35
   8  -4   1   75.39   24.89
  -8   4   1   53.83    9.29
  -8  -4  -1   50.31   22.23
   8   4  -1   78.77   31.48
  -8  -4  -1   49.63    7.51
   8  -4  -1   57.93    9.23
   8  -4  -1   41.86   27.17
   8   4   1   42.88    7.89
  -8  -4   1   54.10    8.77
   8  -4  -1   61.31   25.16
  -8   4  -1   48.18    6.33
   8   4   1   53.15   23.42
  -8  -4   1   54.02   29.29
  -8  -4   1   56.52    9.27
  -8   4  -1   55.80    7.48
   8  -4  -1   43.02    7.83
  10   4  -1   28.47    9.07
 -10  -4  -1   22.09    6.47
  10  -4   1   -2.17   25.97
 -10  -4  -1    7.65   31.88
 -10  -4  -1   17.02    5.78
 -10   4   1   22.11    6.84
  10  -4   1    0.20    5.37
  10   4  -1   44.74   38.94
  10  -4   1   24.10   32.72
 -10   4   1   15.95    7.06
 -10  -4   1   28.06    9.31
 -10   4  -1   22.80    5.34
  10  -4  -1   13.80    7.66
 -10   4  -1   18.43    6.20
 -10  -4   1   22.70    7.49
 -10  -4   1   42.44   34.82
  10   4   1   28.11   32.93
  10  -4  -1   22.43   32.53
  10   4   1   23.35    7.19
 -12  -4  -1    6.73    5.19
  12  -4   1   21.03    8.79
 -12   4   1   16.78    7.24
 -12   4   1   15.30    8.43
  12   4  -1    0.54   47.90
  12  -4   1   77.58   54.40
 -12  -4  -1    4.26   49.86
 -12  -4   1   10.09    8.22
  12   4   1   17.24   59.67
 -12  -4   1   11.84    8.56
  12  -4  -1   13.43    8.89
  12  -4  -1   35.38   62.96
 -12  -4   1   -3.30   61.07
  12   4   1   13.99    7.80
 -12  -4   1   13.78    6.47
 -12   4  -1    4.32    6.04
  12  -4  -1  -61.12   38.46
  -1  -5  -1 1023.03   37.17
   1  -5   1  995.66   44.83
  -1   5   1 1029.41   48.06
   1   5  -1 1017.15   47.95
   1   5  -1 1007.52   38.01
  -1  -5  -1  846.67   48.93
   1   5   1 1067.22   37.50
   1  -5  -1 1042.72   47.31
   1   5   1 1017.29   46.33
  -1   5  -1 1046.31   37.12
  -1  -5   1 1120.30   49.78
  -1   5  -1 1001.68   44.38
   3   5  -1 1881.02   84.17
   3  -5   1 1775.60   75.51
   3   5   1 1805.32   78.61
   3  -5  -1 1753.73   81.28
  -3  -5   1 1747.80   84.23
  -3   5  -1 1806.56   77.82
  -5  -5  -1 1802.84   64.88
   5   5  -1 1719.43   67.09
  -5   5   1 1765.37   65.23
   5  -5   1 1799.63   83.58
   5  -5   1 1731.70   87.17
  -5   5   1 1790.61   66.33
   5   5  -1 1831.16   92.40
  -5  -5  -1 1736.66   64.22
  -5  -5  -1 1550.04   95.60
  -5   5  -1 1700.57   63.60
   5   5   1 1800.84   66.06
  -5   5  -1 1835.43   63.64
   5  -5  -1 1745.01   88.72
   5   5   1 1780.96   85.76
  -5  -5   1 1766.99   65.66
  -5  -5   1 1775.83   94.15
   5  -5  -1 1842.71   66.39
   5  -5  -1 1742.07   93.99
  -7   5   1  612.46   27.67
   7  -5   1  726.10   54.94
   7  -5   1  655.06   49.88
   7   5  -1  611.39   30.04
  -7  -5  -1  658.88   29.06
   7  -5   1  639.40   28.33
  -7  -5  -1  634.89   27.48
  -7   5   1  653.14   29.31
  -7  -5  -1  616.63   53.94
  -7  -5  -1  650.50   26.92
   7   5  -1  589.80   54.52
  -7  -5   1  615.72   56.41
  -7  -5   1  639.63   29.88
  -7   5  -1  675.51   26.79
   7  -5  -1  662.37   29.49
   7  -5  -1  602.15   56.73
   7  -5  -1  532.08   51.34
   7   5   1  651.60   29.08
   7   5   1  656.53   52.03
  -7   5  -1  624.19   25.84
  -7  -5   1  630.87   28.51
   9   5  -1  406.40   62.89
  -9  -5  -1  313.17   17.77
   9  -5   1  361.06   56.16
  -9  -5  -1  287.01   52.77
  -9   5   1  331.08   19.85
  -9   5   1  330.96   18.53
  -9  -5  -1  332.40   17.18
   9  -5   1  349.99   41.43
   9   5  -1  326.97   21.06
   9  -5   1  337.76   19.53
   9  -5  -1  389.93   48.60
   9  -5  -1  266.34   50.64
  -9   5  -1  331.19   16.25
  -9  -5   1  361.94   60.12
  -9  -5   1  353.11   21.40
   9   5   1  270.48   45.34
   9  -5  -1  316.09   20.25
  -9   5  -1  313.15   17.28
  -9  -5   1  308.35   18.90
   9   5   1  303.19   19.64
 -11  -5  -1  108.89    9.70
 -11   5   1   99.95   13.07
  11  -5   1  105.94   42.25
 -11  -5  -1   56.21   44.68
  11   5  -1  124.98   52.76
  11  -5   1   54.12   36.64
 -11  -5  -1  105.95   11.06
  11  -5   1   96.43   13.18
 -11   5   1  115.17   11.88
 -11   5  -1   75.61    7.19
  11   5   1   73.03   46.87
  11   5   1  134.69   14.42
 -11  -5   1  115.86   16.99
  11  -5  -1  109.58   14.40
 -11  -5   1   -8.77   41.39
 -11  -5   1  114.07   15.13
 -11  -5   1  128.22   12.60
 -11   5  -1  110.42   11.36
  11  -5  -1   65.67   52.21
  11  -5  -1  120.11   44.12
   0   6   1  160.76   14.83
   0  -6   1  188.71   16.10
   0  -6   1  145.88    8.09
   0  -6  -1  162.51    8.04
   0  -6  -1  184.94   15.57
   0   6  -1  188.44   15.91
   0   6  -1  156.70    8.31
   0   6   1  152.18    7.94
   0   6  -1  162.20    8.32
   2  -6   1   65.41   10.51
  -2  -6  -1   49.44   14.91
   2   6  -1   55.34    5.23
  -2   6   1   46.65    4.33
   2   6  -1   29.89   11.39
   2  -6   1   66.47    4.71
  -2   6   1   52.47   12.21
  -2  -6  -1   55.23    4.78
   2  -6  -1   49.82   12.06
   2   6   1   55.37   11.43
  -2   6  -1   57.80    4.48
   2   6   1   44.55    4.75
  -2   6  -1   67.68   11.37
  -2  -6   1   49.15   12.51
   2  -6  -1   51.89    4.79
  -2  -6   1   48.43    5.00
   4  -6   1  201.69   20.89
   4   6  -1  189.25   12.03
  -4  -6  -1  213.80   10.46
  -4   6   1  202.48   11.65
   4  -6   1  214.98   10.75
  -4   6   1  219.25   11.25
   4   6  -1  230.93   26.22
  -4  -6  -1  211.64   11.13
   4  -6  -1  231.28   33.28
   4  -6  -1  206.18   24.84
   4   6   1  208.18   11.73
  -4  -6   1  179.27   29.07
   4   6   1  183.64   21.26
  -4  -6   1  228.45   12.66
  -4   6  -1  217.19   10.20
  -4   6  -1  193.64    9.71
   4  -6  -1  210.73   11.78
   6   6  -1  107.02    9.98
  -6   6   1   88.38    8.05
   6  -6   1  102.43   21.83
   6  -6   1  113.88    8.80
  -6   6   1   83.74    8.54
   6  -6   1  103.23   23.89
  -6  -6  -1   97.98    7.59
  -6  -6  -1   92.91    8.16
   6   6  -1   69.70   24.29
  -6  -6   1   94.32   26.77
   6   6   1  103.55   25.37
  -6   6  -1  106.57    7.37
   6   6   1   87.70    8.63
   6  -6  -1  100.20   23.80
  -6  -6   1  115.83   10.10
   6  -6  -1   80.34   25.18
   6  -6  -1   88.71    8.84
  -6  -6   1   99.74    8.70
  -6   6  -1   92.04    7.04
   8  -6   1   94.53   30.67
  -8  -6  -1   30.21   25.50
   8  -6   1   97.72   11.56
  -8   6   1   88.94    9.25
  -8   6   1   89.01   11.42
  -8  -6  -1   91.04    9.16
   8   6  -1   75.32   30.13
   8  -6   1   79.10   25.00
   8   6  -1   99.57   12.71
  -8  -6  -1   94.64    8.78
  -8   6  -1   93.12    8.43
   8  -6  -1   92.68   11.51
  -8   6  -1   85.04    7.91
   8   6   1   38.19   25.81
  -8  -6   1   98.55   10.10
   8   6   1   97.19   10.62
   8  -6  -1   44.89   24.14
  -8  -6   1   85.33   11.84
   8  -6  -1   75.31   31.86
  -8  -6   1   69.94   30.90
 -10   6   1   13.42    7.09
 -10  -6  -1  -16.14   27.64
  10   6  -1   18.16    8.14
  10  -6   1   23.64    7.52
 -10  -6  -1   21.25    5.89
 -10  -6  -1    7.72    5.82
  10  -6   1    5.44   24.42
  10  -6   1   29.39   34.86
  10   6  -1   32.59   40.42
 -10   6   1   16.02    6.54
  10  -6  -1    7.25    6.73
  10   6   1    9.63    6.85
  10  -6  -1    7.66   37.84
  10   6   1   12.78   35.12
 -10  -6   1   28.46    7.89
 -10  -6   1   14.60    7.96
 -10  -6   1  -15.32   35.61
 -10   6  -1   14.07    6.11
 -10   6  -1   14.75    5.44
 -10  -6   1   12.53    7.27
 -12   6   1   14.04    6.88
 -12  -6  -1  -49.11   53.46
 -12  -6  -1    1.17    5.20
 -12  -6  -1    1.84    2.04
  12   6  -1  -26.87   59.40
  12  -6   1   66.06   56.15
 -12   6   1    8.76    7.75
  12  -6   1    6.83    7.57
  12  -6  -1   15.02    9.55
  12   6   1   25.89   58.04
 -12   6  -1   -1.44    3.57
 -12  -6   1  -41.87   59.45
 -12  -6   1   13.89    8.56
 -12  -6   1    5.36    8.28
  12  -6  -1  -25.77   61.80
  12  -6  -1  -34.03   46.56
 -12   6  -1   -0.55    1.29
   1   7  -1 2871.20  113.32
   1  -7   1 2797.88  110.73
  -1   7   1 2821.61  112.95
   1  -7  -1 2802.09  110.88
  -1  -7   1 2735.46  113.88
   1   7   1 2649.51  110.92
  -3   7   1 2082.31   94.07
   3   7  -1 2014.34   92.68
  -3  -7  -1 1947.57   72.04
   3   7  -1 1937.73   73.58
   3  -7   1 1965.63   84.21
  -3   7  -1 1968.05   87.53
   3   7   1 2010.63   72.87
   3   7   1 1986.38   73.28
  -3   7  -1 1983.58   71.31
  -3  -7   1 1951.68   93.63
   3   7   1 2153.36   89.68
   3  -7  -1 1938.83   90.06
  -3  -7   1 1977.25   73.14
   5   7  -1 1433.43   56.69
   5  -7   1 1448.04   78.40
  -5  -7  -1 1391.67   53.44
   5  -7   1 1430.08   71.97
  -5   7   1 1509.26   55.68
  -5   7   1 1420.86   54.27
  -5  -7  -1 1480.47   54.48
   5  -7   1 1466.43   54.29
   5   7  -1 1455.13   80.56
  -5   7  -1 1471.77   53.06
   5  -7  -1 1445.90   55.38
  -5  -7   1 1467.51   83.63
   5  -7  -1 1442.72   84.25
   5  -7  -1 1380.40   77.06
  -5   7  -1 1424.76   52.91
   5   7   1 1374.76   55.48
  -5  -7   1 1471.39   54.89
  -5  -7   1 1443.19   56.38
   5   7   1 1400.52   75.58
   7   7  -1  326.45   46.80
  -7  -7  -1  355.40   17.49
  -7   7   1  325.41   18.33
   7  -7   1  318.12   35.64
   7  -7   1  303.40   17.24
   7   7  -1  314.86   19.37
  -7  -7  -1  331.64   16.48
   7  -7   1  352.34   40.44
  -7   7   1  301.72   16.85
   7  -7  -1  338.19   18.86
  -7  -7   1  337.66   19.53
  -7  -7   1  312.21   17.73
   7   7   1  291.70   18.08
  -7   7  -1  326.24   15.92
   7  -7  -1  387.98   45.99
  -7  -7   1  332.45   50.05
   7   7   1  320.06   39.84
  -7   7  -1  338.18   15.76
   7  -7  -1  248.66   38.25
   9  -7   1  302.14   18.23
   9   7  -1  262.52   19.70
  -9   7   1  253.82   16.28
  -9  -7  -1  239.94   16.10
  -9   7   1  263.39   17.74
  -9  -7  -1  265.13   15.48
  -9  -7  -1  274.27   53.23
   9   7  -1  226.08   46.50
   9  -7   1  286.09   49.21
   9  -7   1  307.61   46.38
  -9  -7   1  286.76   19.28
  -9   7  -1  254.00   14.45
   9  -7  -1  280.17   18.46
   9  -7  -1  218.58   43.27
   9   7   1  246.39   47.18
  -9   7  -1  267.65   15.29
  -9  -7   1  297.86   17.87
   9  -7  -1  284.23   52.14
  -9  -7   1  253.54   53.00
  -9  -7   1  260.90   19.08
   9   7   1  244.89   17.98
  11   7  -1   46.72   48.20
  11  -7   1   64.59   45.80
 -11  -7  -1  -37.05   34.83
  11  -7   1   36.08   33.50
 -11  -7  -1   89.19   11.37
 -11   7   1  121.87   12.01
 -11  -7  -1  114.92   10.48
  11  -7   1   86.24   13.42
 -11   7   1  100.90   13.71
  11  -7  -1   93.51   14.70
 -11   7  -1   88.44   10.96
  11   7   1  130.81   13.86
 -11  -7   1  106.21   14.25
  11  -7  -1  168.88   48.99
 -11  -7   1  -39.38   42.06
  11   7   1   60.94   48.08
  11  -7  -1  107.24   55.62
 -11  -7   1  162.42   12.69
 -11  -7   1   95.87   15.95
   0   8  -1   20.63    3.62
   0  -8  -1   27.20    9.79
   0   8   1   13.84    7.48
   0   8  -1   14.48    8.52
   0  -8   1   11.54    7.81
   0   8   1   41.39    5.01
   0  -8   1   25.14    4.07
  -2  -8  -1   65.08   15.33
   2  -8   1   51.20   11.21
  -2   8   1   51.63    5.24
  -2   8   1   30.62   11.91
  -2  -8  -1   53.31    5.47
   2  -8   1   57.65    5.34
   2   8  -1   45.88   13.36
   2   8  -1   63.83    6.09
  -2  -8   1   41.96    5.37
  -2   8  -1   53.84   12.46
  -2   8  -1   55.50    5.14
   2  -8  -1   44.79   11.61
  -2  -8   1   71.24   16.84
  -2  -8   1   61.97    6.12
   2  -8  -1   61.45    5.52
   2   8   1   71.54   16.13
   2   8   1   59.32    5.93
   4   8  -1  263.65   15.79
  -4   8   1  289.31   15.25
   4  -8   1  292.20   24.92
  -4   8   1  281.07   14.42
  -4  -8  -1  279.28   29.64
   4  -8   1  329.29   14.70
   4   8  -1  335.02   31.92
  -4   8   1  271.24   30.12
  -4  -8  -1  290.71   14.75
   4   8   1  298.60   28.57
   4   8   1  283.32   15.60
  -4  -8   1  283.74   15.75
   4  -8  -1  307.09   30.11
  -4   8  -1  319.26   29.52
  -4  -8   1  274.34   30.98
  -4  -8   1  310.49   16.31
   4  -8  -1  307.82   15.30
  -4   8  -1  308.20   13.97
  -6  -8  -1   52.85    6.99
   6  -8   1   56.73    7.70
   6  -8   1   58.80   22.64
   6   8  -1   58.50    9.24
  -6  -8  -1   60.51    7.90
   6   8  -1   40.04   19.81
   6  -8   1   71.75   18.90
  -6   8   1   59.91    8.39
  -6   8   1   60.13    7.48
  -6  -8   1   54.50    7.66
  -6   8  -1   58.69    6.70
   6  -8  -1   42.10   23.45
   6   8   1   47.93   19.72
  -6  -8   1   59.66    9.50
   6   8   1   66.97    9.75
   6  -8  -1   35.70   18.80
   6  -8  -1   75.19    9.35
  -6  -8   1   59.45   24.71
  -6   8  -1   59.98    6.11
  -6  -8   1   58.33    9.56
   8   8  -1  128.47   36.95
   8  -8   1   44.49   28.06
   8  -8   1   56.49    9.19
  -8  -8  -1   57.08    7.97
   8   8  -1   46.01    9.23
   8  -8   1   48.85   23.02
  -8   8   1   45.80    9.03
  -8   8   1   46.93    7.92
  -8  -8  -1   66.66    9.40
  -8  -8   1   60.26   10.61
   8   8   1   37.60   23.52
  -8  -8   1   60.04    9.89
  -8  -8   1   44.88    9.10
  -8   8  -1   51.88    7.29
   8  -8  -1   63.25   27.37
  -8   8  -1   45.44    6.72
  -8  -8   1   20.13   27.03
   8   8   1   52.92    9.96
   8  -8  -1   49.40    9.13
   8  -8  -1   31.03   27.11
  10  -8   1   40.56   35.91
 -10  -8  -1    0.10   30.85
 -10   8   1   17.03    6.98
  10   8  -1    9.13    8.69
 -10   8   1   14.08    7.00
  10  -8   1   10.23    7.02
 -10  -8  -1   21.28    7.01
  10  -8   1   29.76   25.84
 -10  -8  -1   15.47    6.03
  10   8  -1   32.98   40.79
  10  -8  -1   15.14   34.13
  10   8   1   11.15   37.94
 -10  -8   1    8.96    7.49
  10  -8  -1   31.40   37.43
 -10  -8   1   12.48    7.91
 -10   8  -1    7.58    5.02
 -10  -8   1   18.38    7.78
 -10   8  -1   23.36    6.48
 -10  -8   1   10.93   39.11
  10  -8  -1   26.06    8.65
  10   8   1    5.92    6.42
 -12   8   1   20.76    7.12
 -12   8   1    9.09    7.35
 -12  -8  -1   17.19    6.99
  12   8  -1   21.97   62.16
 -12  -8  -1   55.14   57.04
  12  -8   1  -33.83   56.87
  12  -8   1   10.53    7.80
 -12  -8   1   13.56    8.56
 -12  -8   1  -59.50   55.92
 -12  -8   1   21.76    9.25
  12  -8  -1    9.73    8.25
  12   8   1   59.28   63.51
  12  -8  -1   15.93   66.06
  -1  -9  -1 2273.65  101.77
   1   9  -1 2341.77   85.89
   1  -9   1 2275.18   99.86
  -1   9   1 2374.62  101.76
   1   9  -1 2346.16  101.87
  -1   9  -1 2412.54   99.49
   1   9   1 2467.33  101.72
  -1  -9   1 2363.24  103.60
  -1   9  -1 2359.52   85.01
   1  -9  -1 2381.76   99.91
  -3  -9  -1 1295.28   68.53
  -3   9   1 1292.85   70.05
   3   9  -1 1314.11   69.49
   3   9  -1 1117.19   49.97
  -3  -9  -1 1302.47   49.09
   3  -9   1 1319.47   48.56
  -3   9   1 1293.78   48.66
   3  -9   1 1286.77   62.24
  -3  -9   1 1305.99   50.13
   3  -9  -1 1317.77   49.41
   3  -9  -1 1232.72   65.55
   3   9   1 1331.47   66.85
  -3  -9   1 1287.81   50.49
  -3  -9   1 1222.61   70.38
   3   9   1 1333.48   50.69
  -3   9  -1 1291.27   48.40
   3   9   1 1311.46   50.07
  -3   9  -1 1461.95   68.56
   5   9  -1  448.73   43.38
   5   9  -1  517.87   25.34
   5  -9   1  523.28   22.95
  -5   9   1  488.67   23.63
  -5  -9  -1  579.25   46.99
  -5   9   1  483.12   22.59
   5  -9   1  571.15   39.72
  -5  -9  -1  503.75   23.07
   5  -9  -1  476.60   41.89
   5   9   1  507.73   24.45
   5  -9  -1  506.30   48.82
  -5   9  -1  498.61   21.59
  -5  -9   1  541.44   24.68
  -5  -9   1  477.72   45.61
  -5  -9   1  526.93   25.07
  -5   9  -1  505.38   21.84
   5   9   1  577.55   44.53
   5  -9  -1  505.20   23.84
  -7  -9  -1  346.41   18.37
  -7   9   1  373.92   19.70
   7   9  -1  337.04   20.94
   7   9  -1  297.58   46.34
  -7   9   1  345.96   18.26
   7  -9   1  346.42   18.85
   7  -9   1  362.00   36.42
   7  -9   1  327.70   48.69
  -7  -9  -1  332.23   17.30
  -7  -9   1  278.47   19.05
  -7   9  -1  355.19   16.92
   7   9   1  360.20   41.05
   7  -9  -1  279.20   42.54
   7  -9  -1  314.36   50.11
  -7  -9   1  328.81   18.43
   7  -9  -1  336.98   19.36
  -7  -9   1  325.64   20.38
   7   9   1  331.05   19.80
  -7  -9   1  324.58   50.12
  -7   9  -1  357.52   16.87
  -9   9   1  280.19   16.84
  -9  -9  -1  235.66   16.00
  -9   9   1  248.87   17.52
   9  -9   1  266.22   18.05
  -9  -9  -1  247.85   15.65
   9   9  -1  327.23   59.01
   9  -9   1  192.99   49.05
   9   9  -1  226.73   19.35
  -9   9  -1  243.46   14.75
   9   9   1  259.60   49.04
   9  -9  -1  246.19   18.35
   9  -9  -1  193.87   41.41
  -9  -9   1  297.68   58.39
  -9  -9   1  266.28   18.92
   9  -9  -1  212.59   53.28
  -9   9  -1  260.37   14.76
  -9  -9   1  254.59   17.19
  -9  -9   1  260.94   19.36
   9   9   1  292.08   19.41
  11   9  -1   84.68   51.87
 -11  -9  -1   14.11   45.74
 -11  -9  -1   63.15   10.21
 -11  -9  -1   97.46    9.75
 -11   9   1   92.77   13.38
  11  -9   1   58.11   11.92
 -11   9   1   70.34   10.27
  11  -9   1   60.12   48.50
  11  -9   1   30.86   36.89
 -11  -9   1  -28.20   44.14
  11   9   1   36.79   47.30
  11  -9  -1   86.87   57.50
  11  -9  -1   82.49   13.62
 -11  -9   1   82.61   13.15
 -11  -9   1   97.36   16.73
 -11   9  -1   65.83    9.35
  11  -9  -1    4.26   39.61
   0 -10  -1  345.02   28.67
   0  10   1  375.25   28.10
   0 -10   1  304.02   15.49
   0  10   1  324.34   15.53
   0 -10  -1  337.21   15.64
   0  10  -1  301.23   15.67
   0  10  -1  331.85   27.59
   0 -10   1  320.92   27.48
   0  10  -1  319.18   15.90
   2  10  -1  161.02   24.70
   2 -10   1  148.80    9.60
  -2 -10  -1  153.58    9.98
   2  10  -1  157.77   10.73
  -2  10   1  150.44   23.57
   2 -10   1  176.44   19.45
  -2 -10  -1  178.61   26.27
  -2  10   1  143.74    9.41
   2 -10  -1  191.71   10.52
   2  10   1  148.13   10.21
  -2 -10   1  155.28   10.29
  -2  10  -1  155.43    9.67
   2  10   1  185.24   21.85
   2 -10  -1  151.89   19.26
  -2 -10   1  167.46   25.68
  -2  10  -1  141.37   21.03
  -4  10   1  103.99    8.24
  -4 -10  -1  102.59    8.65
  -4  10   1  117.61   25.20
   4 -10   1   94.13    8.08
   4  10  -1   96.52    9.40
   4  10  -1  157.90   28.53
  -4 -10  -1  119.08   26.04
   4 -10   1  113.64   20.48
   4 -10  -1  121.60    9.26
   4  10   1  158.97   26.06
   4 -10  -1  123.08   23.08
   4  10   1  111.72    9.44
  -4  10  -1  128.60   24.49
  -4 -10   1  111.05   24.92
  -4  10  -1  101.22    7.89
  -4 -10   1   98.62    9.38
  -4 -10   1   76.41    8.56
  -6  10   1    8.27    4.53
  -6 -10  -1    9.08    4.16
   6  10  -1    3.12    4.74
   6 -10   1   27.80   19.99
  -6  10   1    3.03    4.48
  -6 -10  -1    8.24    4.73
  -6 -10  -1   -1.76   16.06
   6  10  -1  -26.12   16.76
   6 -10   1    0.70    3.84
   6 -10   1    4.29   12.94
  -6 -10   1    3.83    5.07
   6  10   1   -4.76   15.91
  -6 -10   1    1.72   17.04
   6 -10  -1   17.92   16.45
   6  10   1    0.38    3.82
   6 -10  -1   -0.01   21.05
  -6  10  -1    1.77    3.66
  -6  10  -1    0.71    3.20
  -6 -10   1    3.50    4.06
   6 -10  -1    0.43    4.48
  -6 -10   1    3.74    4.64
  -8  10   1   29.35    7.00
   8  10  -1   15.85    7.96
  -8 -10  -1   26.97    6.97
   8 -10   1   27.21    7.49
  -8  10   1   22.29    7.00
   8 -10   1   22.72   20.52
   8  10  -1   16.38   28.78
   8 -10   1   44.30   30.32
  -8 -10  -1   12.21   27.96
  -8 -10  -1   20.62    6.08
   8 -10  -1   28.89    7.81
  -8  10  -1   19.21    5.50
  -8 -10   1   11.90    6.28
  -8 -10   1  -12.81   26.74
   8  10   1   18.24    7.17
   8 -10  -1   68.86   32.10
   8  10   1   42.71   27.26
   8 -10  -1   -1.42   22.67
  -8  10  -1   34.02    6.48
  -8 -10   1   10.93    6.35
  -8 -10   1   28.09    8.27
  10 -10   1  -12.78   36.90
  10 -10   1   15.74   30.40
 -10  10   1   13.69    7.19
 -10 -10  -1   15.87    6.07
 -10  10   1   12.28    6.74
 -10 -10  -1   10.94    7.04
  10  10  -1   10.51   41.70
  10 -10   1   18.16    8.46
 -10  10  -1   12.52    5.86
  10 -10  -1   17.37   34.85
 -10 -10   1   20.49    8.04
 -10 -10   1   21.07    9.65
  10  10   1   -2.64    4.60
  10 -10  -1  -46.25   36.67
  10 -10  -1   10.72    7.97
 -10 -10   1   10.62    7.84
 -10 -10   1  -22.38   36.78
 -10  10  -1   10.03    5.61
  10  10   1  -15.77   36.95
   1  11  -1 1213.97   64.49
   1  11  -1 1170.00   46.60
   1  11  -1 1113.09   46.17
  -1 -11  -1 1135.60   63.70
  -1  11   1 1356.12   66.08
   1 -11   1 1224.57   45.69
  -1 -11  -1 1172.89   45.45
  -1  11   1 1163.67   45.40
   1 -11   1 1128.21   61.88
   1  11   1 1214.97   63.18
  -1  11  -1 1158.18   60.84
   1 -11  -1 1181.40   45.55
  -1  11  -1 1153.99   45.58
   1 -11  -1 1203.66   62.47
  -1 -11   1 1123.38   64.24
   1  11   1 1155.63   45.96
  -1 -11   1 1264.59   46.34
   3  11  -1  651.13   46.50
  -3  11   1  648.15   47.28
   3  11  -1  638.28   28.72
   3 -11   1  617.62   40.91
   3 -11   1  642.76   26.68
  -3 -11  -1  636.32   27.04
  -3 -11  -1  640.43   46.70
  -3  11   1  591.58   26.31
   3  11   1  657.39   44.89
  -3 -11   1  652.25   48.25
  -3  11  -1  635.41   26.59
   3  11   1  590.72   27.77
   3 -11  -1  650.25   27.29
  -3  11  -1  658.26   44.23
   3 -11  -1  577.13   41.77
  -3 -11   1  608.45   27.56
   3  11   1  614.45   28.42
  -5  11   1  587.12   25.57
  -5 -11  -1  579.83   26.13
  -5  11   1  549.09   49.84
   5  11  -1  608.26   50.54
   5 -11   1  586.44   42.81
   5 -11   1  612.08   26.10
  -5 -11  -1  548.47   48.53
   5  11  -1  572.77   28.25
  -5  11   1  552.41   26.52
  -5  11  -1  588.97   24.79
  -5 -11   1  536.92   27.50
  -5 -11   1  633.44   53.99
  -5  11  -1  588.90   47.01
   5  11   1  586.05   47.81
   5 -11  -1  550.15   26.41
   5  11   1  550.98   27.40
  -5  11  -1  569.91   24.87
  -5 -11   1  614.78   27.56
   5 -11  -1  512.24   45.51
  -7 -11  -1  217.57   13.95
   7 -11   1  300.16   47.61
   7 -11   1  225.34   15.29
  -7  11   1  236.60   15.86
  -7 -11  -1  222.92   43.18
  -7 -11  -1  262.55   15.62
   7  11  -1  233.98   17.59
   7  11  -1  313.51   47.27
   7 -11   1  251.59   37.37
  -7  11   1  239.44   14.63
   7  11   1  210.32   39.77
   7 -11  -1  220.71   16.30
  -7 -11   1  180.56   39.60
   7 -11  -1  234.12   39.84
  -7  11  -1  215.32   13.45
   7  11   1  196.40   15.98
  -7 -11   1  245.71   15.59
  -7 -11   1  226.08   16.54
  -7  11  -1  229.25   13.51
   7 -11  -1  309.24   52.90
  -7 -11   1  208.70   16.47
   9  11  -1  207.75   22.99
  -9 -11  -1  113.17   48.00
   9 -11   1  156.48   14.91
  -9 -11  -1  162.09   14.35
  -9  11   1  182.23   15.69
   9 -11   1  141.70   53.27
  -9 -11  -1  186.61   13.49
  -9  11   1  180.98   14.11
   9  11  -1  194.46   50.58
   9 -11   1  126.26   40.12
   9 -11  -1  197.32   16.30
   9 -11  -1  239.49   54.51
  -9  11  -1  173.13   12.61
   9  11   1  177.11   16.61
   9 -11  -1  120.06   41.67
  -9 -11   1  189.61   16.26
  -9 -11   1  181.45   17.11
  -9 -11   1  205.50   15.34
   9  11   1  150.81   42.46
  -9  11  -1  161.84   12.33
  -9 -11   1  119.20   44.41
  11 -11   1   22.14   52.54
 -11  11   1   95.81   11.52
 -11  11   1   57.86   11.08
  11  11  -1  -23.03   48.48
  11 -11   1   60.24   12.17
 -11 -11  -1   74.65   11.35
  11 -11   1   52.99   38.11
  11  11   1   67.66   53.05
  11 -11  -1   15.85   54.54
 -11  11  -1   53.52    7.69
 -11 -11   1   59.24   12.00
  11 -11  -1   72.31   45.37
  11 -11  -1   56.70   12.46
 -11 -11   1   32.74   56.51
   0  12   1  215.80   12.74
   0  12  -1  248.25   26.09
   0 -12   1  245.82   26.64
   0 -12  -1  215.69   12.43
   0  12  -1  204.77   12.66
   0 -12  -1  224.13   26.26
   0  12   1  276.55   27.12
   0 -12   1  204.21   12.57
   0  12  -1  194.27   12.59
   2 -12   1  155.60   10.56
   2 -12   1  125.69   22.00
  -2  12   1  173.53   28.43
  -2  12   1  142.14    9.99
  -2 -12  -1  121.77   24.67
  -2 -12  -1  159.71   10.72
   2  12  -1  154.45   11.35
   2  12  -1  131.57   25.09
   2 -12  -1  163.44   10.71
  -2 -12   1  141.08   26.53
   2 -12  -1  125.87   21.91
  -2  12  -1  163.95   24.91
  -2 -12   1  164.13   11.30
   2  12   1  157.26   11.08
   2  12   1  195.28   28.63
  -2  12  -1  155.51   10.56
   4 -12   1   92.31   20.04
  -4  12   1   96.52    8.65
  -4  12   1  148.88   28.79
   4  12  -1  134.57   27.66
  -4 -12  -1  116.85   27.24
  -4 -12  -1   93.59   10.05
   4 -12   1  107.99    9.06
   4  12  -1   87.31    9.75
   4  12   1   83.41   22.44
  -4  12  -1   79.13   22.27
  -4  12  -1   94.35    8.51
   4  12   1   95.78   11.39
   4  12   1   81.87    9.24
  -4 -12   1   90.44    9.42
   4 -12  -1   99.99   11.09
   4 -12  -1   96.68   21.83
  -4 -12   1   55.64   21.46
  -6 -12  -1    3.40    5.14
   6 -12   1   -6.22   14.09
  -6 -12  -1    4.18   18.57
  -6  12   1    6.12    5.23
  -6  12   1    6.27    4.91
   6 -12   1    2.92    4.72
   6  12  -1    7.22    5.29
   6  12  -1   17.48   21.37
   6 -12  -1   14.68   16.49
   6 -12  -1    3.19   21.78
  -6 -12   1   12.56    6.41
  -6  12  -1    8.28    4.66
  -6 -12   1    7.02    5.93
   6  12   1   22.69   20.77
  -6  12  -1    6.86    4.11
   6 -12  -1    7.78    5.52
  -6 -12   1    9.29   21.88
   6  12   1   18.11    6.87
   8  12  -1   30.74   32.44
   8 -12   1   22.12    7.65
  -8 -12  -1   38.66    7.90
   8 -12   1   13.97   29.16
  -8  12   1   31.14    7.82
   8  12  -1   38.07    9.85
   8 -12   1   35.97   20.55
  -8 -12  -1   27.13   27.61
  -8 -12  -1   34.74    8.09
  -8  12   1   35.45    8.71
  -8  12  -1   27.17    6.53
  -8 -12   1   21.74    7.45
   8  12   1   37.85   10.09
   8  12   1   46.80   32.17
   8 -12  -1    8.94   21.93
  -8 -12   1  -15.19   28.93
   8 -12  -1   30.75    8.68
  -8 -12   1   37.19   10.22
  -8  12  -1   38.96    7.21
   8 -12  -1   27.97   31.08
  -8 -12   1   30.72    8.76
  10 -12   1   27.78   28.61
 -10 -12  -1    8.90    5.90
 -10  12   1   20.31    8.19
  10  12  -1  102.55   49.01
 -10 -12  -1    8.98    7.22
 -10  12   1   10.76    7.30
 -10 -12  -1  -42.34   40.94
  10 -12   1   32.73   45.03
  10 -12   1   10.75    8.24
  10  12   1   24.57   44.16
  10 -12  -1   -9.71   35.73
  10 -12  -1   23.03   49.56
 -10  12  -1   12.47    5.87
 -10 -12   1  -35.54   45.60
  10 -12  -1    1.53    7.44
 -10 -12   1    5.70    7.78
 -10  12  -1   12.54    5.59
   1  13  -1  258.28   15.42
   1  13  -1  270.64   29.38
   1 -13   1  229.85   27.26
  -1  13   1  261.81   14.74
   1  13  -1  252.12   15.39
  -1 -13  -1  261.78   14.71
  -1  13   1  233.63   32.64
  -1 -13  -1  273.60   30.50
   1 -13   1  287.09   15.00
   1  13   1  272.10   15.18
   1 -13  -1  260.46   14.82
  -1 -13   1  297.99   15.74
  -1 -13   1  274.75   31.28
  -1  13  -1  254.74   26.69
   1  13   1  226.76   27.84
  -1  13  -1  288.79   15.28
   1 -13  -1  268.66   28.97
  -3  13   1  661.36   28.97
  -3 -13  -1  673.57   51.89
   3  13  -1  644.60   30.94
  -3  13   1  654.00   51.41
   3 -13   1  686.46   29.24
  -3 -13  -1  740.26   30.02
   3  13  -1  706.18   51.56
   3 -13   1  660.65   45.72
  -3  13  -1  721.08   50.94
  -3 -13   1  632.93   29.88
   3  13   1  655.20   48.93
   3  13   1  666.99   30.68
   3 -13  -1  680.38   29.72
   3 -13  -1  768.29   48.81
  -3  13  -1  670.28   29.16
  -3 -13   1  637.01   53.25
   3  13   1  674.33   31.31
  -5  13   1  264.78   15.67
  -5 -13  -1  319.42   39.73
  -5 -13  -1  279.40   16.58
   5  13  -1  279.69   18.50
   5  13  -1  285.43   45.51
   5 -13   1  263.03   29.20
  -5  13   1  287.29   45.93
   5 -13   1  276.99   16.42
   5 -13  -1  308.27   35.56
  -5 -13   1  375.90   51.82
   5 -13  -1  300.31   17.38
  -5 -13   1  272.16   17.14
  -5  13  -1  286.26   15.75
   5  13   1  258.94   39.79
   5  13   1  267.64   17.82
  -5  13  -1  289.89   36.46
   7  13  -1  142.14   14.77
  -7 -13  -1  130.43   11.31
   7 -13   1  117.55   12.15
  -7 -13  -1  127.24   12.12
  -7  13   1  125.49   12.56
  -7  13   1  142.07   11.86
  -7 -13  -1   88.99   31.73
   7  13  -1  121.90   34.98
   7 -13   1  141.63   37.91
   7 -13   1  146.00   28.62
   7  13   1  105.42   31.72
   7 -13  -1  139.85   39.49
  -7  13  -1  131.93   10.72
  -7 -13   1   87.25   36.31
   7  13   1  120.84   13.49
   7 -13  -1  106.43   13.10
  -7 -13   1  136.65   11.84
   7 -13  -1   70.92   28.14
  -7 -13   1  123.90   14.25
  -7  13  -1  128.43   10.72
   9 -13   1  135.50   32.83
  -9 -13  -1  130.04   12.67
  -9 -13  -1   81.55   39.38
  -9  13   1  157.26   13.51
  -9 -13  -1  145.15   13.88
   9 -13   1  109.75   14.30
  -9  13   1  146.07   14.85
   9  13  -1  210.57   53.39
   9 -13   1  158.53   45.04
  -9  13  -1  149.43   12.05
   9 -13  -1  112.63   15.00
  -9  13  -1  129.91   11.69
  -9 -13   1  152.28   15.38
  -9 -13   1  134.40   53.03
   9  13   1  153.25   43.23
   9 -13  -1   87.79   43.73
   9  13   1  174.46   28.26
  -9 -13   1  160.13   14.18
  11 -13   1   64.62   62.69
 -11 -13  -1   54.86   10.47
  11 -13   1   48.91   11.49
 -11  13   1   63.98   12.66
  11  13  -1    8.62   63.48
 -11 -13  -1   45.59    8.79
 -11  13   1   56.15   11.42
 -11 -13   1   31.97   10.75
  11  13   1   17.82   55.89
  11 -13  -1  -17.06   39.86
  11 -13  -1   78.70   65.67
  11 -13  -1   61.49   12.55
 -11 -13   1   -6.20   65.47
   0 -14  -1   40.47    7.22
   0  14   1   56.43    8.29
   0 -14   1   26.69   15.70
   0  14  -1   38.46   15.70
   0  14  -1   54.44    8.16
   0 -14  -1   41.06   16.38
   0  14  -1   51.18    7.99
   0 -14   1   37.52    6.75
   0  14   1   37.70   16.21
   2 -14   1   32.63    6.28
  -2  14   1   65.31   19.21
   2  14  -1   39.30    7.74
  -2 -14  -1   29.96   17.92
   2 -14   1   31.45   14.94
  -2  14   1   30.19    6.05
  -2 -14  -1   38.15    6.71
   2  14  -1   48.91   19.38
   2 -14  -1   30.66    6.35
   2  14   1   32.10   15.84
  -2 -14   1   41.40   18.77
  -2  14  -1   43.44   16.82
  -2 -14   1   32.73    6.94
   2  14   1   34.14    6.94
   2 -14  -1   51.23   17.97
  -2  14  -1   32.41    6.53
   4  14  -1   85.81   11.24
  -4  14   1   87.04    9.12
  -4  14   1   78.51   25.46
   4 -14   1   90.34    9.45
   4 -14   1   90.60   21.32
   4  14  -1  105.09   27.41
  -4 -14  -1  103.81   28.21
  -4 -14  -1   94.46    9.48
   4  14   1   55.81   22.08
  -4 -14   1  110.48   12.01
  -4  14  -1  100.19   25.81
   4  14   1   77.11   11.16
   4 -14  -1  122.52   24.55
  -4 -14   1  109.28   31.39
  -4  14  -1   76.09    9.38
   4  14   1   91.77   12.00
   4 -14  -1  101.70   11.41
  -6 -14  -1   21.06   23.21
   6 -14   1   48.44    8.47
  -6 -14  -1   44.82    8.49
   6  14  -1   31.21    9.03
   6 -14   1   36.43   18.88
   6  14  -1   82.56   32.55
  -6  14   1   48.18    8.60
  -6  14   1   32.35    7.12
   6  14   1   52.84   26.25
  -6  14  -1   39.36    7.30
  -6  14  -1   10.70   23.07
  -6  14  -1   54.45    8.15
   6 -14  -1   45.95    9.42
  -6 -14   1   27.60   27.26
   6 -14  -1   69.45   23.68
   6  14   1   39.79    9.43
  -6 -14   1   59.80   10.14
   8 -14   1   36.55    9.16
   8 -14   1   58.54   31.72
  -8 -14  -1   70.68   38.07
   8  14  -1   46.67   35.24
  -8  14   1   56.07   10.14
  -8 -14  -1   39.83    9.17
  -8  14   1   31.13    8.17
  -8 -14  -1   50.26    9.10
  -8  14  -1   44.75    8.03
  -8  14  -1   49.39    8.03
  -8 -14   1   43.84    9.11
  -8 -14   1   39.21    9.65
   8 -14  -1   25.91    9.26
   8 -14  -1   42.53   27.50
   8  14   1   49.33   10.14
  -8 -14   1   12.79   33.00
   8  14   1   32.23   33.15
   8 -14  -1   21.75   33.26
 -10 -14  -1    2.70   46.35
  10 -14   1   11.08    8.57
 -10 -14  -1    9.09    7.66
  10 -14   1   -5.46   27.02
 -10  14   1   14.10    7.63
  10  14  -1   16.09   54.33
  10 -14   1   10.23   43.97
 -10 -14  -1   10.77    6.68
 -10  14   1    7.03    6.28
 -10  14  -1   13.68    6.02
 -10 -14   1   16.98    9.31
  10 -14  -1   96.54   59.16
  10 -14  -1    8.44    8.62
  10  14   1   13.54   48.13
  10 -14  -1   12.77   34.38
 -10 -14   1   44.37   52.89
 -10  14  -1    2.65    4.46
   1  15  -1  353.16   36.44
  -1 -15  -1  338.71   36.71
  -1  15   1  306.90   18.02
  -1  15   1  357.60   36.96
   1  15  -1  339.33   19.44
  -1 -15  -1  383.37   19.14
   1  15  -1  317.76   19.05
   1 -15   1  368.67   19.02
   1 -15   1  341.58   35.29
  -1  15  -1  334.77   18.71
   1  15   1  353.95   19.20
  -1  15  -1  330.76   33.99
   1 -15  -1  345.73   36.39
  -1 -15   1  386.64   19.34
   1 -15  -1  349.23   18.43
  -1 -15   1  293.87   36.26
   1  15   1  413.71   37.10
  -3 -15  -1  319.98   38.86
   3 -15   1  276.16   16.34
   3  15  -1  259.60   17.88
   3 -15   1  324.14   34.63
  -3 -15  -1  285.78   16.65
   3  15  -1  341.59   37.70
  -3  15   1  283.34   42.19
  -3  15   1  273.01   16.27
  -3  15  -1  276.86   16.38
   3 -15  -1  285.26   17.08
   3  15   1  331.92   43.17
   3  15   1  275.62   17.67
  -3  15  -1  284.63   34.25
  -3 -15   1  318.66   39.92
  -3 -15   1  289.37   17.29
   3 -15  -1  285.66   32.01
   3  15   1  263.52   17.83
   5  15  -1  350.84   21.75
   5  15  -1  319.23   47.19
  -5  15   1  308.25   18.21
   5 -15   1  382.58   38.39
   5 -15   1  296.54   18.54
  -5 -15  -1  386.25   54.30
  -5  15   1  408.12   51.02
  -5 -15  -1  344.17   19.34
  -5  15  -1  237.46   40.30
   5  15   1  373.86   42.79
  -5 -15   1  355.96   20.23
   5 -15  -1  349.69   20.34
  -5  15  -1  308.65   18.05
  -5 -15   1  368.03   53.85
   5 -15  -1  292.01   35.76
   5  15   1  322.38   20.94
   7  15  -1  200.79   17.95
   7  15  -1  178.71   43.78
  -7  15   1  172.71   15.35
  -7 -15  -1  167.57   43.61
  -7 -15  -1  189.62   14.85
   7 -15   1  174.72   14.93
   7 -15   1  157.76   32.39
  -7  15   1  173.98   13.94
  -7  15  -1  186.85   13.26
   7  15   1  176.80   41.23
  -7  15  -1  162.19   13.28
  -7 -15   1  183.12   45.69
   7  15   1  158.90   16.23
   7 -15  -1   85.95   43.86
   7 -15  -1  158.46   15.52
  -7 -15   1  181.24   15.87
   7 -15  -1  153.51   34.49
  -9 -15  -1   89.59   11.53
   9 -15   1   29.62   30.63
  -9  15   1  118.15   13.44
   9  15  -1  105.77   46.79
  -9 -15  -1  106.10   13.31
  -9  15   1  122.45   15.43
   9 -15   1  109.20   50.88
   9 -15   1   91.55   13.91
  -9 -15  -1  -46.55   39.14
   9 -15  -1   75.29   47.65
   9  15   1  113.38   45.54
  -9  15  -1  104.47   11.69
  -9 -15   1   63.40   55.84
  -9  15  -1  107.22   11.51
  -9 -15   1  101.14   14.60
   9 -15  -1   94.29   35.00
   9 -15  -1   81.44   13.93
   0 -16  -1   23.27    6.51
   0  16   1   19.20    6.07
   0 -16  -1   24.01   17.17
   0 -16   1   16.52   15.76
   0  16  -1   12.85    6.02
   0  16   1    7.52   14.85
   0  16  -1   26.92    6.78
   0  16  -1    1.34   14.88
   0 -16   1   14.46    5.49
  -2 -16  -1   37.67    7.57
  -2  16   1   36.82    7.27
   2  16  -1   25.73    6.87
   2 -16   1   24.99    6.75
   2  16  -1   18.66   20.20
  -2 -16  -1   31.28   20.62
   2 -16   1   29.69   16.81
  -2  16   1   14.74   16.49
  -2 -16   1   38.40    8.03
   2 -16  -1   30.13    7.25
   2  16   1    4.94   16.36
  -2  16  -1   43.36    7.96
   2  16   1   29.62    7.48
  -2  16  -1   34.64   16.80
   2 -16  -1   53.03   18.82
  -2 -16   1   22.45   21.34
   4  16  -1   92.87   13.66
  -4  16   1   75.56   28.02
   4 -16   1   33.40   17.40
  -4  16   1   72.70   10.04
   4 -16   1   74.76   10.21
   4  16  -1   68.85   27.01
  -4 -16  -1   94.50   11.23
  -4 -16  -1   25.48   26.55
   4  16   1  102.72   27.53
  -4  16  -1   82.16   10.18
  -4 -16   1   97.87   32.01
   4  16   1   83.89   12.29
   4 -16  -1   41.21   18.89
  -4 -16   1   57.02    9.89
  -4  16  -1   48.58   22.25
   4  16   1  100.00   13.83
   4 -16  -1   74.42   10.14
  -6  16   1   45.32   28.13
  -6  16   1   45.03    8.74
   6  16  -1   61.30   12.11
  -6 -16  -1   26.22    8.15
   6 -16   1   38.84   19.11
   6  16  -1    7.26   27.72
   6 -16   1   36.46    8.71
  -6  16   1   40.41    8.89
  -6 -16  -1   41.42   31.97
   6  16   1   50.73   10.97
   6 -16  -1   39.59    9.24
  -6  16  -1   -9.47   25.35
  -6  16  -1   47.29    8.56
  -6 -16   1   -6.78   25.67
   6 -16  -1   12.26   23.69
   6  16   1   85.10   31.23
  -6 -16   1   28.66    8.76
  -8  16   1   35.59    9.76
  -8  16   1   38.84    9.08
  -8 -16  -1   18.89    6.97
   8 -16   1   19.73   23.08
   8  16  -1   27.31   36.70
   8 -16   1   55.14   40.86
   8 -16   1   29.01    9.17
  -8 -16  -1   27.98    8.67
  -8 -16  -1  -15.05   35.25
   8  16   1   18.53   31.59
  -8 -16   1   41.34   11.72
   8 -16  -1   35.30   10.33
   8 -16  -1  -38.10   37.64
  -8  16  -1   26.51    7.79
  -8 -16   1   48.33   10.96
  -8 -16   1  -61.72   40.18
  -8  16  -1   37.52    8.55
  10 -16   1    1.47   35.46
 -10 -16  -1    1.67    7.35
 -10 -16  -1   12.31    7.03
  10 -16   1  -14.89   52.22
 -10 -16  -1   31.01   49.13
 -10  16   1   11.94    8.56
  10 -16   1    5.05    8.43
  10  16  -1   47.34   61.19
 -10 -16   1   -1.13    7.88
  10 -16  -1   12.58   59.24
 -10  16  -1   -4.19    1.98
  10 -16  -1  -29.55   32.60
 -10 -16   1  -86.01   51.19
 -10  16  -1   15.47    5.99
  10 -16  -1    4.01    8.82
  10  16   1   35.35   45.11
   1 -17   1  618.96   27.92
  -1 -17  -1  549.38   50.19
   1  17  -1  550.14   28.67
   1  17  -1  609.44   50.61
   1 -17   1  505.74   47.80
  -1  17   1  561.46   27.68
   1  17  -1  511.95   28.23
  -1  17   1  629.19   51.59
  -1 -17  -1  581.65   27.52
   1  17   1  551.25   28.15
  -1 -17   1  620.21   28.41
  -1  17  -1  683.43   50.42
   1 -17  -1  664.45   52.30
   1 -17  -1  577.83   27.65
  -1 -17   1  652.22   54.13
   1  17   1  555.77   47.01
  -1  17  -1  543.59   27.79
   3  17  -1  417.88   24.07
  -3  17   1  473.78   48.68
   3 -17   1  431.89   22.16
   3  17  -1  387.12   45.24
  -3  17   1  425.47   22.17
  -3 -17  -1  352.87   44.92
   3 -17   1  402.52   40.84
   3 -17  -1  400.51   41.20
  -3  17  -1  394.48   21.70
   3  17   1  373.79   23.37
  -3 -17   1  392.32   22.45
   3  17   1  414.31   44.55
  -3 -17   1  319.50   50.43
  -3  17  -1  470.64   46.98
   3 -17  -1  455.14   23.19
   3  17   1  375.26   22.97
   5 -17   1  244.39   36.95
  -5 -17  -1  235.55   46.61
   5  17  -1  254.11   19.83
  -5  17   1  249.00   17.26
  -5  17   1  288.86   53.03
  -5 -17  -1  258.32   17.40
   5  17  -1  284.54   46.94
   5 -17   1  258.63   17.46
   5  17   1  280.30   45.00
   5  17   1  224.93   18.88
   5 -17  -1  267.60   18.53
  -5  17  -1  268.19   16.91
  -5  17  -1  255.60   44.98
  -5 -17   1  232.07   48.37
  -5 -17   1  256.66   18.22
   5 -17  -1  235.19   37.49
   7  17  -1  171.40   47.24
   7 -17   1  148.83   16.49
  -7  17   1  142.01   13.34
  -7 -17  -1  133.90   15.00
  -7  17   1  125.90   14.38
  -7 -17  -1   82.20   38.86
   7 -17  -1  115.35   14.92
  -7  17  -1  131.55   12.52
   7 -17  -1  107.42   35.15
   7  17   1  165.73   42.64
  -7 -17   1   72.46   40.24
  -7 -17   1  115.21   15.58
  -7  17  -1  138.01   12.72
   9 -17   1   62.22   12.63
  -9  17   1   58.70   12.30
  -9  17   1   93.32   14.09
  -9 -17  -1   69.47   50.30
   9 -17   1   54.20   32.25
  -9 -17  -1   81.73   11.34
   9  17  -1   57.35   46.34
   9 -17   1   73.56   52.66
  -9 -17  -1   66.56   11.88
  -9  17  -1   66.46   10.16
   9  17   1   51.34   45.11
   9 -17  -1   42.16   11.98
   9 -17  -1   27.92   32.30
  -9 -17   1   10.33   46.03
  -9  17  -1   59.94   10.10
   9 -17  -1   42.84   51.85
  -9 -17   1   48.56   11.99
   0 -18   1   73.98   10.44
   0  18   1   84.97   11.12
   0 -18  -1  123.48   28.96
   0 -18   1   41.80   22.26
   0  18  -1   65.26   22.89
   0  18  -1   97.36   12.56
   0 -18  -1   81.92   10.77
   0  18   1   94.28   24.94
   0  18  -1   92.37   12.23
   2  18  -1   33.46    8.23
  -2  18   1   46.71    8.75
   2 -18   1   43.66    8.64
  -2 -18  -1   33.65    7.95
  -2 -18  -1   -7.42   19.57
   2 -18   1   13.66   17.80
  -2  18   1   57.39   24.03
   2  18  -1   26.25   21.79
   2 -18  -1   34.47   20.00
   2  18   1   19.73   22.03
  -2 -18   1   39.86    8.60
   2 -18  -1   22.85    6.89
   2  18   1   22.49    7.43
  -2  18  -1   31.96    7.46
  -2  18  -1    1.26   16.26
  -2 -18   1   29.72   23.17
  -4 -18  -1   31.88    8.29
  -4 -18  -1   33.64   26.66
   4 -18   1   41.31    9.19
   4 -18   1   16.71   19.96
   4  18  -1   46.59   10.06
  -4  18   1   46.17    8.99
  -4  18   1   34.84   26.30
   4  18  -1   28.12   26.20
  -4 -18   1   38.20    9.50
  -4  18  -1   46.75   23.09
   4 -18  -1   33.38   20.25
  -4 -18   1   24.12   25.63
   4 -18  -1   56.15   10.33
  -4  18  -1   55.25    9.28
   4  18   1   38.74    9.93
   4  18   1   42.94   10.04
   4  18   1   38.17   25.45
  -6 -18  -1   37.77   31.77
  -6 -18  -1   14.36    7.94
   6 -18   1   14.63    7.43
  -6  18   1   77.40   37.19
  -6  18   1   29.49    8.00
   6  18  -1   34.95   31.37
   6 -18   1   22.79   25.13
  -6  18  -1    3.77    5.94
   6  18   1   43.51   30.99
   6 -18  -1   -1.77   20.96
   6 -18  -1   18.73    8.60
  -6  18  -1   13.08   31.76
   6  18   1   13.37   10.57
  -6 -18   1   22.46    8.68
  -6 -18   1   21.34   30.87
   8 -18   1    6.04    7.93
   8 -18   1   -6.92   36.20
  -8  18   1   12.96    8.32
   8 -18   1   31.12   30.04
  -8  18   1   17.05    7.55
  -8 -18  -1    8.38    6.79
  -8 -18  -1    6.95    7.60
  -8 -18  -1  -28.48   42.24
   8  18  -1   -4.58   38.12
   8 -18  -1    9.12    8.42
  -8 -18   1    5.90    8.45
   8  18   1   26.25   37.16
   8 -18  -1   52.22   52.42
  -8 -18   1   72.34   47.47
  -8  18  -1   10.20    6.93
  -8  18  -1    4.15    6.53
   8 -18  -1  -52.39   27.87
 -10  18   1   -0.55    7.53
 -10 -18  -1   12.62    8.58
  10  18  -1  -35.87   64.94
  10 -18   1  -13.44   60.81
 -10 -18  -1   30.55   65.07
  10 -18   1   -0.48    7.82
  10  18   1  -63.26   46.93
  10 -18  -1  -13.07   42.26
  10 -18  -1    3.73   71.78
 -10 -18   1  -27.27   61.07
  10 -18  -1    6.88    9.10
 -10 -18   1    8.73    8.83
 -10  18  -1   -4.04    1.88
 -10  18  -1   -0.29    2.16
   1  19  -1  186.57   16.06
   1  19  -1  222.30   16.74
   1 -19   1  196.16   15.09
   1  19  -1  218.37   38.74
  -1  19   1  163.84   33.26
  -1  19   1  221.90   15.99
  -1 -19  -1  204.58   15.44
  -1 -19  -1  210.05   38.30
   1 -19   1  238.47   39.40
  -1  19  -1  191.95   34.50
  -1 -19   1  198.67   38.79
  -1  19  -1  202.87   16.14
   1 -19  -1  217.93   15.52
   1  19   1  217.97   16.07
   1 -19  -1  213.24   39.87
   1  19   1  280.62   40.52
  -1 -19   1  233.42   16.08
  -3  19   1  162.97   13.69
  -3 -19  -1  154.21   38.38
   3 -19   1   92.62   28.18
   3  19  -1  154.10   15.28
   3  19  -1  186.68   37.53
   3 -19   1  147.45   13.14
  -3  19   1  186.16   38.81
  -3 -19  -1  146.55   13.78
  -3  19  -1   92.80   28.73
  -3 -19   1  143.76   38.62
   3  19   1  128.74   14.37
   3 -19  -1  112.87   29.41
   3 -19  -1  145.42   13.68
  -3 -19   1  159.15   14.43
  -3  19  -1  172.00   14.05
   3  19   1  148.24   14.56
   3  19   1  183.58   36.24
   5 -19   1  147.98   32.91
   5  19  -1  105.58   37.70
  -5  19   1  153.84   13.52
  -5 -19  -1  135.73   13.70
  -5  19   1  125.92   37.44
   5 -19   1  109.17   13.45
  -5 -19  -1   89.92   38.51
  -5  19  -1   90.18   36.73
   5  19   1  133.71   16.95
  -5  19  -1  124.58   13.07
  -5 -19   1  110.53   14.45
   5  19   1   64.92   30.53
   5 -19  -1  142.55   34.35
  -5 -19   1  104.90   41.53
   5 -19  -1  147.09   14.95
  -7 -19  -1   46.19   42.42
  -7  19   1   62.99   11.38
   7 -19   1   53.84   11.40
  -7 -19  -1   67.39   11.51
  -7  19   1   78.14   13.76
   7 -19   1   27.00   26.93
   7  19  -1  102.58   44.24
  -7 -19   1   49.16   11.55
  -7  19  -1   68.17   11.28
  -7  19  -1   47.87    9.84
  -7 -19   1   43.47   40.62
   7  19   1   61.68   40.40
   7 -19  -1   52.85   11.10
  -7  19  -1   30.55   40.53
   7 -19  -1   86.54   38.95
   9  19  -1   60.58   51.12
   9 -19   1   30.77   10.93
  -9 -19  -1    0.82   56.49
  -9 -19  -1   48.11   11.17
  -9  19   1   19.47    9.57
   9 -19   1   87.56   59.60
   9 -19   1   64.75   38.05
   9 -19  -1   36.02   11.85
  -9 -19   1  -61.69   49.97
  -9 -19   1   14.31   10.02
   9 -19  -1  -34.61   58.45
   9 -19  -1   37.12   38.16
   9  19   1   67.65   52.61
  -9  19  -1   42.48    9.54
   0  20  -1   73.47   28.84
   0  20  -1   43.26    9.60
   0 -20   1   43.29    8.93
   0 -20  -1   56.67   10.06
   0  20   1   37.04   22.78
   0 -20   1    3.10   22.29
   0 -20  -1   53.46   26.54
   0  20  -1   42.01    9.60
   0  20   1   65.96   11.00
  -2  20   1    1.37   23.12
  -2  20   1   24.02    8.18
   2  20  -1   48.23   10.87
  -2 -20  -1   18.53    7.68
   2  20  -1    3.50   20.02
   2 -20   1   24.79   22.99
   2 -20   1   15.52    7.61
  -2 -20  -1   -2.87   24.63
   2 -20  -1   18.36   21.10
  -2  20  -1   27.79    8.24
   2 -20  -1   18.79    7.50
   2  20   1   33.00   22.13
  -2 -20   1   24.55    8.17
   2  20   1   48.55    9.53
  -2 -20   1   -2.37   23.49
  -2  20  -1   26.07   23.44
   2  20   1   21.80    8.01
  -4 -20  -1   13.59    7.67
   4 -20   1   24.54   24.28
  -4  20   1   12.98   29.75
   4 -20   1   -1.30    6.27
  -4  20   1   14.25    7.68
   4  20  -1   61.86   31.03
  -4 -20  -1    0.00   27.57
  -4 -20   1   25.78   29.75
   4  20   1   30.32    9.50
  -4  20  -1   30.73    8.51
   4  20   1   13.69    6.93
  -4  20  -1   -7.39   23.46
   4 -20  -1   15.18    7.34
   4  20   1   36.22   27.61
  -4 -20   1   15.57    8.18
   4 -20  -1    7.56   21.64
  -6  20   1   10.40    6.99
   6 -20   1    9.77    7.65
  -6 -20  -1    6.97    7.69
  -6  20   1    8.49   34.15
   6  20  -1    8.71   32.01
  -6 -20  -1    6.55   39.37
  -6  20  -1    6.76    7.03
  -6 -20   1   14.98   35.30
   6 -20  -1    6.78    7.76
   6  20   1   17.53   31.17
  -6 -20   1   14.26    8.50
  -6  20  -1    6.79   34.15
   6 -20  -1   11.21   27.19
  -8 -20  -1    0.08   46.00
  -8 -20  -1    5.32    8.10
   8  20  -1   51.87   47.09
  -8  20   1   -5.27    6.63
   8 -20   1   15.57   47.04
   8 -20   1    8.45    7.79
   8 -20   1  -19.94   30.12
   8 -20  -1   36.05   38.66
  -8  20  -1   10.20    7.71
   8 -20  -1  -66.91   49.06
  -8 -20   1    7.65    8.85
   8 -20  -1   10.97    9.30
   8  20   1  -64.14   43.49
  -8 -20   1  -28.50   53.15
  -8  20  -1    6.31    7.18
   1  21  -1   92.75   29.71
  -1 -21  -1   83.48   31.89
   1 -21   1  142.10   35.59
   1  21  -1   83.63   13.32
  -1 -21  -1   85.50   12.29
  -1  21   1  106.33   13.59
   1 -21   1  129.96   12.98
  -1  21   1   71.03   28.78
   1  21  -1  122.02   15.95
   1 -21  -1   74.50   29.59
   1  21   1  121.45   14.78
   1 -21  -1   95.16   12.46
  -1 -21   1   98.31   33.44
  -1  21  -1  116.91   14.74
  -1  21  -1  100.58   13.52
   1  21   1   71.52   28.33
  -1 -21   1  109.73   13.14
  -1  21  -1   87.04   31.12
   3 -21   1   60.12   26.75
   3 -21   1   60.05   10.43
  -3 -21  -1   64.09   10.76
  -3  21   1   14.17   27.91
  -3 -21  -1   51.06   31.93
   3  21  -1   89.45   13.85
   3  21  -1  109.13   37.56
  -3  21   1   77.26   11.90
   3  21   1   82.27   31.10
   3 -21  -1   47.82   26.34
  -3  21  -1   85.15   35.25
   3 -21  -1   64.24   11.54
  -3 -21   1   59.63   10.94
  -3  21  -1   62.77   10.96
  -3 -21   1   73.46   34.03
  -5  21   1   11.86   33.78
   5 -21   1   32.64   29.81
  -5 -21  -1   22.46   37.08
   5  21  -1  116.99   43.82
  -5  21   1   67.54   11.20
   5 -21   1   64.01   11.40
  -5 -21  -1   65.04   12.05
  -5 -21   1   75.88   12.48
  -5  21  -1   33.30   34.00
  -5  21  -1   64.09   11.54
   5 -21  -1   55.15   11.29
   5 -21  -1   51.34   29.84
  -5 -21   1   61.76   40.82
   5  21   1   46.19   33.12
  -7  21   1   44.63   11.37
   7  21  -1   94.82   44.60
   7 -21   1   34.21   29.16
  -7 -21  -1   68.07   46.31
  -7 -21  -1   45.52   10.74
   7 -21   1   41.14   10.95
  -7  21   1   23.33   45.67
  -7  21  -1   37.56    9.69
  -7  21  -1   70.22   48.54
  -7 -21   1   53.73   50.22
  -7  21  -1   34.72    9.23
   7 -21  -1   29.51   10.65
  -7 -21   1   24.13    9.90
   7 -21  -1   63.21   41.67
   7  21   1   -3.55   36.70
  -9 -21  -1   31.08   10.84
   9 -21   1   25.75   11.05
  -9  21   1   17.48   10.63
  -9  21  -1   36.49    8.76
  -9 -21   1   21.40   11.66
   9 -21  -1   30.04   11.70
   0 -22  -1   51.86   31.18
   0  22  -1   66.62   30.11
   0 -22   1   36.38    9.55
   0 -22  -1   53.25   10.19
   0  22  -1   68.49   12.23
   0  22  -1   71.71   12.45
   0 -22   1   18.83   27.87
   0  22   1   78.64   12.92
   0  22   1   49.95   28.06
   2  22  -1   37.15    9.64
  -2  22   1   21.01   27.01
  -2 -22  -1    5.37   27.88
  -2  22   1   26.61    9.35
   2 -22   1   30.93   25.59
  -2 -22  -1   22.04    8.51
   2 -22   1   18.27    7.77
   2  22  -1   59.17   29.92
  -2  22  -1   20.23   27.48
  -2  22  -1   25.84    8.80
   2  22   1    1.03   23.42
  -2 -22   1  -50.97   25.45
   2 -22  -1   60.36   30.62
   2 -22  -1   25.16    8.28
  -2 -22   1   23.95    8.68
  -4  22   1   33.19   35.34
   4  22  -1   59.47   32.96
  -4 -22  -1   56.01   36.81
   4 -22   1   16.42   29.96
  -4 -22  -1   18.93    8.56
  -4  22   1    9.74    7.65
   4 -22   1   37.12    9.69
  -4 -22   1   -9.36   33.24
  -4 -22   1   15.61    8.72
   4  22   1   -9.77   29.71
  -4  22  -1   14.71    8.58
  -4  22  -1   37.68   30.46
   4 -22  -1   21.33   31.89
   4 -22  -1   18.21    8.42
   6 -22   1    7.38    7.83
   6  22  -1   -3.27   37.93
  -6 -22  -1  -10.83   43.43
  -6 -22  -1    6.45    7.97
  -6  22   1  -31.66   40.73
   6 -22   1   36.44   32.06
   6  22   1   16.87   37.92
  -6  22  -1    8.03    7.82
  -6 -22   1  -26.19   41.35
  -6 -22   1    5.26    8.43
   6 -22  -1    1.28    8.00
  -6  22  -1   -3.34   38.43
   8 -22   1   43.55   36.04
   8  22  -1    1.86   49.67
  -8 -22  -1    1.65   61.04
   8 -22   1   -5.49    7.62
  -8  22   1    2.20    8.44
  -8  22  -1    2.08    7.29
   8  22   1   17.15   46.53
  -8 -22   1    3.15    9.02
  -8 -22   1   -0.12   55.23
   8 -22  -1   35.94   44.91
  -8  22  -1    3.31    7.87
   8 -22  -1   74.39   67.67
   8 -22  -1   21.08   10.90
  -1 -23  -1   95.48   13.59
  -1  23   1   73.33   33.75
   1 -23   1   98.52   13.24
   1  23  -1   84.92   32.69
  -1 -23  -1   92.99   35.23
   1  23  -1  120.38   16.17
   1 -23   1  108.93   34.38
  -1 -23   1  122.94   14.36
  -1  23  -1  172.15   16.44
  -1  23  -1  117.54   15.80
   1 -23  -1   82.07   33.58
   1 -23  -1   93.91   13.15
  -1 -23   1   65.05   35.69
  -1  23  -1  103.02   32.35
   1  23   1  101.12   36.57
   3  23  -1   32.96   33.60
   3 -23   1   70.01   30.13
  -3 -23  -1   32.75   36.13
  -3 -23  -1   49.48   10.32
   3 -23   1   42.58   10.07
  -3  23   1   72.38   37.49
   3  23   1   76.11   34.74
  -3  23  -1    1.04   30.43
   3 -23  -1   26.42   30.47
  -3 -23   1   73.88   36.94
   3 -23  -1   41.13   10.54
  -3  23  -1   81.38   12.78
  -3 -23   1   60.38   11.74
  -5 -23  -1   38.82   10.61
  -5 -23  -1   16.67   42.11
  -5  23   1   86.02   44.34
   5 -23   1   28.15   10.56
   5  23  -1   40.25   38.52
  -5  23  -1   19.58   41.41
   5 -23  -1   33.11   10.31
  -5  23  -1   38.77    9.86
   5 -23  -1   66.32   34.32
  -5 -23   1   10.93   41.86
   5  23   1   62.78   43.32
  -5 -23   1   33.58   10.86
  -7 -23  -1   -4.09   52.14
  -7 -23  -1   16.95    9.51
  -7  23   1   73.68   60.09
   7  23  -1   68.94   58.29
   7 -23   1   55.42   42.58
   7 -23   1   32.09   10.85
  -7  23   1   27.70   11.55
   7 -23  -1    6.56    9.10
  -7  23  -1   30.70    9.89
  -7 -23   1  -50.73   51.60
   7 -23  -1  -25.59   41.44
   7  23   1   89.30   54.94
  -7  23  -1   23.22    9.74
  -7 -23   1   27.18   10.80
  -7  23  -1   11.93   55.40
   0 -24   1   20.89    9.23
   0  24   1    4.71   26.82
   0  24  -1   24.57   28.87
   0  24  -1   20.37   10.80
   0 -24   1    1.96   29.46
   0 -24  -1   47.49   34.31
   0 -24  -1   14.21    8.93
   2  24  -1   -5.40   28.48
  -2 -24  -1    6.60    7.69
  -2 -24  -1   15.38   34.34
   2 -24   1   13.80    8.13
   2 -24   1   34.94   27.14
  -2  24   1   15.39   33.15
  -2  24  -1   27.32    9.89
   2 -24  -1   -1.16   31.62
  -2  24  -1  -12.81   31.97
  -2 -24   1   13.23   33.66
   2  24   1   14.17   34.10
  -2  24  -1   13.94    8.57
  -2 -24   1    9.72    8.37
   2 -24  -1   11.39    7.87
   4 -24   1   10.11    8.32
  -4 -24  -1  -23.81   45.82
   4  24  -1    6.90   36.39
  -4 -24  -1    7.11    8.24
  -4  24   1    4.03   43.29
   4  24   1  -39.77   31.94
  -4 -24   1   26.49   10.61
   4 -24  -1   46.95   33.73
  -4  24  -1   35.75   36.76
   4 -24  -1   18.37    9.52
  -4  24  -1   35.16    9.20
  -4 -24   1  -44.14   37.51
  -6 -24  -1   11.70    8.80
   6 -24   1   17.33   35.76
   6 -24   1   -2.70    8.13
   6  24  -1   -4.36   43.95
  -6 -24  -1   -1.69   50.69
  -6  24   1   46.74   52.73
  -6 -24   1    5.43   48.75
  -6  24  -1   34.02   47.86
  -6  24  -1    7.63    7.31
   6 -24  -1   43.67   42.26
   6  24   1   -5.67   49.23
  -6 -24   1    3.78    8.92
   6 -24  -1    4.36    8.65
  -1  25   1   26.73   32.21
  -1 -25  -1   36.37   10.02
   1 -25   1   26.50    9.80
  -1 -25  -1  105.58   42.24
   1 -25   1   34.99   36.67
   1  25  -1   28.58   31.31
  -1  25  -1  -18.65   26.37
   1  25   1    5.87   30.22
   1 -25  -1  -43.01   30.89
  -1 -25   1   25.63    9.70
  -1 -25   1   53.66   40.61
   1 -25  -1   21.34    9.42
  -3 -25  -1   -5.70   43.72
   3  25  -1   49.08   37.90
  -3 -25  -1   18.83    9.61
  -3  25   1   55.52   39.34
   3 -25   1   19.61   57.95
   3 -25   1   39.58   10.55
  -3 -25   1   23.02   39.97
  -3  25  -1   24.13   35.37
   3  25   1    5.88   33.44
  -3 -25   1   32.70   10.21
   3 -25  -1   25.76    9.78
   3 -25  -1   42.73   36.72
  -5  25   1   64.30   52.83
  -5 -25  -1    0.67   47.44
  -5 -25  -1   15.57    9.36
   5 -25   1   13.57    9.35
   5  25  -1   23.82   50.84
   5 -25   1    9.75   37.90
  -5 -25   1   24.07   11.05
   5  25   1   82.28   49.87
  -5  25  -1   11.93   44.27
   5 -25  -1   16.79    9.97
  -5 -25   1   12.37   47.04
   7 -25   1   22.25   11.00
  -7 -25  -1   17.35    9.94
  -7  25   1   75.34   70.39
  -7  25   1    9.06   10.02
  -7 -25  -1   -9.71   70.12
   7 -25   1   17.23   42.94
   7  25  -1   31.75   59.66
  -7 -25   1   14.23   10.32
   7  25   1   34.59   52.85
  -7  25  -1   62.64   59.85
   7 -25  -1   14.01    9.89
  -7 -25   1  -48.08   62.98
   7 -25  -1  -67.02   41.75
   0 -26   1   -5.71   34.04
   0 -26   1   13.40    9.17
   0  26  -1  -36.65   29.81
   0 -26  -1    6.08    8.47
   0 -26  -1   36.54   34.64
   0  26   1   36.84   33.66
  -2 -26  -1   43.78   42.61
   2  26  -1  -43.86   32.60
  -2 -26  -1    3.90    8.10
   2 -26   1   -0.04    7.21
   2 -26   1  -13.55   35.58
  -2  26   1  -44.10   33.25
   2 -26  -1    0.68   34.55
  -2 -26   1   12.61   39.45
  -2  26  -1   10.52   34.84
  -2 -26   1    0.95    8.37
   2 -26  -1    0.05    6.78
   2  26   1   26.48   38.28
  -4 -26  -1   -0.77    8.10
  -4 -26  -1   26.37   49.99
   4 -26   1    9.88    9.10
  -4  26   1  -58.93   43.17
   4  26  -1   26.99   45.91
   4 -26   1   21.88   38.86
  -4 -26   1   15.11   51.02
   4  26   1   69.00   41.35
  -4 -26   1   12.86    9.86
  -4  26  -1   19.68   47.85
   4 -26  -1    6.18    8.53
   6  26  -1  -33.73   52.88
  -6 -26  -1   57.13   63.01
  -6 -26  -1   -9.18    7.62
   6 -26   1    4.71    8.88
  -6  26   1  -48.94   55.91
   6 -26   1   45.32   45.55
  -6  26  -1  -12.44   52.72
   6  26   1   43.90   57.82
  -6 -26   1    4.55   67.03
  -6 -26   1   -9.88    7.99
   6 -26  -1   65.93   49.27
   6 -26  -1   17.01   10.60
  -1 -27  -1   13.78    9.19
  -1  27   1   55.56   42.50
  -1 -27  -1   78.76   44.81
   1 -27   1   16.70    9.51
   1 -27   1  -39.04   41.71
   1  27  -1   23.31   37.44
   1  27   1   36.79   37.73
   1 -27  -1   25.78   40.37
  -1  27  -1   54.75   41.19
  -1 -27   1   20.69    9.96
   1 -27  -1   14.89    9.34
  -1 -27   1   15.40   41.46
  -3 -27  -1   17.16    9.61
   3 -27   1    8.48    8.65
   3  27  -1    7.05   39.95
  -3  27   1   24.92   44.89
  -3 -27  -1  -32.71   52.93
   3 -27   1  -31.42   36.22
  -3 -27   1   20.69   10.75
  -3  27  -1   23.60   49.67
   3  27   1   -2.15   38.54
   3 -27  -1   15.44    9.80
   3 -27  -1   20.71   39.35
  -3 -27   1   -0.26   49.59
   5 -27   1   17.07    9.96
   5 -27   1    7.41   44.28
  -5  27   1   19.96   58.48
  -5 -27  -1   13.46   10.50
  -5 -27  -1   14.00   63.30
   5  27  -1   22.70   51.05
  -5 -27   1    1.95    9.09
   5 -27  -1   16.57   46.75
  -5  27  -1   -6.13   64.44
   5  27   1    9.70   54.29
  -5 -27   1   -0.20   59.10
   5 -27  -1    3.62   10.33
   0 -28  -1  -31.82   41.31
   0 -28  -1   13.79    9.46
   0 -28   1   44.08   42.23
   0 -28   1   -3.97    7.55
   0  28  -1  -80.11   34.57
   0  28   1   33.12   41.46
   2 -28   1    5.55    8.53
  -2  28   1   78.28   46.43
   2  28  -1  -49.99   43.88
  -2 -28  -1    8.10    9.27
  -2 -28  -1    5.56   47.32
   2 -28   1   10.78   42.28
   2 -28  -1   42.02   44.58
  -2 -28   1   -0.74    8.65
   2 -28  -1   -2.90    8.34
  -2  28  -1  -13.36   44.14
  -2 -28   1   32.54   49.40
   2  28   1  -24.52   40.68
   4  28  -1  101.40   54.75
  -4  28   1  -18.90   53.03
   4 -28   1   -2.16   42.81
   4 -28   1    4.19    9.09
  -4 -28  -1   -3.96    8.74
  -4 -28  -1   33.22   57.21
  -4  28  -1  -19.13   52.04
  -4 -28   1    6.74    9.66
  -4 -28   1   33.82   66.96
   4 -28  -1    4.00    9.50
   4  28   1   21.93   53.88
   4 -28  -1  -15.89   50.40
  -1  29   1  -23.66   46.04
  -1 -29  -1    0.73    8.40
   1 -29   1   49.46   51.92
  -1 -29  -1   35.41   50.43
   1  29  -1   18.66   48.66
   1 -29   1    4.75    8.58
  -1 -29   1    3.86    9.23
   1 -29  -1   21.69   11.10
  -1  29  -1   15.59   44.60
   1 -29  -1   51.54   48.65
   1  29   1    9.38   43.92
   3 -29   1    8.15    9.76
  -3  29   1   -9.62   56.78
  -3 -29  -1  -71.95   60.19
  -3 -29  -1   12.98   10.41
   3 -29   1  -78.58   46.60
   3  29  -1    2.89   54.39
   3  29   1   18.12   53.02
   3 -29  -1   29.55   48.70
  -3 -29   1   13.31   10.62
   3 -29  -1   16.54   10.84
  -3 -29   1  104.71   66.83
  -3  29  -1   49.34   60.23
   0 -30   1   41.31   56.41
   0 -30  -1    7.96    9.90
   0 -30   1   -8.43    8.79
   0 -30  -1    0.27   53.93
   0  30  -1    3.22   49.39
   0  30   1   60.79   55.14
  -2 -30  -1    3.34    9.33
   2 -30   1   10.04    9.99
   2 -30  -1   -3.04    8.62
  -2 -30   1   -0.80    8.98
   0   0  -2 7007.85  249.48
   0   0   2 7085.97  249.58
  -2   0   2 9981.59  360.64
   2   0   2 9766.98  342.93
   2   0  -2 9918.30  360.46
  -2   0  -2 9999.00  343.94
  -4   0   2 1375.78   52.04
  -4   0   2 1406.29   76.40
  -4   0   2 1431.76   53.44
  -4   0  -2 1395.99   63.65
   4   0  -2 1358.26   53.01
   4   0  -2 1392.61   52.09
   4   0   2 1414.17   62.49
   4   0  -2 1305.96   74.44
  -6   0  -2  499.72   19.18
   6   0  -2  497.57   24.02
  -6   0  -2  510.97   18.82
   6   0  -2  500.42   46.73
  -6   0   2  490.31   24.14
   6   0   2  493.11   38.62
  -6   0  -2  524.67   40.53
   6   0  -2  476.25   22.99
   6   0   2  499.80   20.85
  -6   0   2  477.55   22.93
   6   0   2  500.02   21.43
  -6   0   2  555.78   49.64
   8   0  -2  647.98   32.30
  -8   0   2  686.74   32.78
  -8   0   2  715.67   31.63
  -8   0  -2  701.17   26.79
   8   0  -2  709.08   66.28
  -8   0   2  652.97   65.23
   8   0  -2  670.24   31.67
   8   0   2  687.58   29.95
   8   0   2  712.68   55.50
  -8   0  -2  597.88   54.37
   8   0   2  690.32   29.00
  -8   0  -2  704.00   26.20
 -10   0   2  161.96   13.37
  10   0  -2  164.15   14.96
 -10   0  -2  135.11    7.74
 -10   0  -2  125.90    8.11
  10   0  -2   98.49   43.18
 -10   0   2  135.04   47.51
  10   0   2  151.47   13.06
  10   0   2   96.81   38.18
 -10   0   2  131.17   14.28
  10   0   2  140.71   11.28
  12   0  -2   62.79   58.54
  12   0   2  125.64   11.83
 -12   0   2   99.65   16.28
  12   0   2   92.68   53.15
   1   1  -2  200.61   17.16
  -1   1   2  258.94   10.16
  -1  -1  -2  256.73   11.48
  -1   1   2  239.10   18.66
   1  -1   2  200.80    9.14
   1   1  -2  193.56   10.44
  -1   1   2  240.65   10.93
  -1  -1   2  203.05   10.53
  -1  -1   2  210.59   17.68
   1  -1  -2  257.18   10.00
   1  -1  -2  269.69   19.29
   1  -1  -2  252.22   10.95
   1   1   2  255.81   11.54
   3  -1   2  324.14   19.21
  -3   1   2  262.01   26.54
  -3   1   2  284.69   13.79
  -3  -1  -2  297.85   19.57
   3   1  -2  335.21   28.54
   3  -1   2  312.41   11.54
  -3   1   2  278.33   14.57
   3   1  -2  334.02   15.18
   3  -1  -2  309.00   13.99
  -3  -1   2  307.65   14.92
  -3  -1   2  312.44   13.95
   3   1   2  290.48   11.76
   3   1   2  294.81   12.33
   3   1   2  308.89   18.84
  -3  -1   2  311.57   28.39
   3   1   2  301.02   12.07
   3  -1  -2  302.24   27.99
  -5  -1  -2  135.13    5.86
   5  -1   2  136.40    7.11
   5   1  -2  126.97    9.99
   5   1  -2  185.26   31.86
  -5   1   2  168.10   32.52
  -5  -1  -2  151.21   22.82
   5  -1   2  138.30    7.88
  -5  -1  -2  119.77    6.09
  -5   1   2  145.35    9.70
   5  -1   2  139.19   20.93
   5   1  -2  142.09    9.52
  -5   1   2  128.98   10.04
   5  -1  -2  112.21    9.43
   5   1   2  159.12   21.83
  -5   1  -2  166.23   23.27
   5  -1  -2  165.78   29.79
   5   1   2  124.76    7.59
  -5  -1   2  132.94    9.23
   5   1   2  114.89    7.46
  -5  -1   2  143.34   10.39
  -5  -1   2  212.70   33.74
   5  -1  -2  136.43    9.51
  -7  -1  -2   51.65    5.40
  -7  -1  -2   31.76   18.20
  -7  -1  -2   47.95    4.51
   7  -1   2   55.20    7.44
   7  -1   2   47.24   19.90
  -7   1   2   11.55   20.51
  -7   1   2   45.90    7.87
   7   1  -2   44.94    8.00
   7   1  -2   23.46   23.84
  -7   1   2   66.38    8.55
   7  -1   2   52.51    5.75
  -7  -1   2   64.10    8.78
   7  -1  -2   64.16   10.25
   7  -1  -2   64.93    9.24
  -7   1  -2   56.38    6.77
   7   1   2   55.90    7.41
   7  -1  -2   47.13   25.36
  -7   1  -2   39.03   18.67
  -7   1  -2   48.51    4.69
  -7  -1   2   49.87   24.62
   7   1   2   56.31    7.42
  -7  -1   2   58.02    9.15
  -7   1  -2   48.69    4.32
   7   1   2   64.43   20.25
  -9  -1  -2   12.91   25.19
   9   1  -2   64.11   31.85
  -9   1   2   25.69    7.50
   9  -1   2   28.16    6.96
   9  -1   2   27.07    5.86
  -9   1   2   11.05   32.66
   9  -1   2   41.71   24.97
  -9  -1  -2   23.75    4.56
   9   1  -2   47.05   10.55
  -9   1   2   26.10    7.67
  -9  -1  -2   24.12    4.18
  -9   1  -2   30.76    4.30
   9   1   2   23.35    5.98
  -9   1  -2   32.48    4.66
   9   1   2   77.08   29.37
  -9  -1   2   37.49    8.76
   9  -1  -2   36.91    8.68
   9   1   2   28.76    6.85
   9  -1  -2   23.29   34.61
  -9  -1   2   -5.78   27.37
   9  -1  -2   24.42    8.13
  -9  -1   2   28.21    7.44
  11  -1   2   84.48   41.47
  11   1  -2   64.38   49.49
  11  -1   2   19.05    6.15
  11  -1   2   13.33   31.23
 -11   1   2   19.34    8.02
  11  -1   2   18.02    7.35
 -11   1   2   20.06    8.35
 -11  -1   2   10.85    8.46
  11   1   2  -42.38   37.03
  11  -1  -2   11.05    6.95
  11   1   2   21.20    6.74
 -11  -1   2   13.94   41.76
  11  -1  -2  -48.75   42.47
 -11  -1   2    9.16   11.33
   0   2   2  405.07   16.07
   0  -2  -2  409.18   15.88
   0  -2  -2  406.85   21.76
   0   2  -2  453.79   17.03
   0  -2   2  454.71   22.80
   0  -2   2  433.19   16.89
   0   2  -2  458.75   22.45
   0   2   2  436.38   22.63
  -2  -2  -2 3299.61  120.21
   2   2  -2 3277.75  132.19
   2   2   2 3207.55  119.37
  -2  -2   2 3184.77  132.65
   2  -2  -2 3495.87  135.13
  -4  -2  -2 1576.22   71.61
   4  -2   2 1517.01   69.64
  -4   2   2 1604.82   84.19
   4   2  -2 1543.10   59.97
   4  -2   2 1549.61   67.85
   4   2  -2 1574.88   82.15
  -4  -2   2 1641.26   85.36
   4  -2  -2 1556.67   83.44
   4   2   2 1670.95   69.97
   4  -2  -2 1598.73   59.70
   6   2  -2  825.81   37.06
  -6  -2  -2  840.07   54.44
  -6   2   2  875.21   35.97
   6   2  -2  928.52   65.10
  -6  -2  -2  855.03   31.77
   6  -2   2  786.31   49.43
  -6   2   2  847.03   37.02
  -6  -2  -2  858.07   32.33
   6  -2   2  940.96   55.00
   6  -2   2  857.89   32.74
   6  -2   2  885.64   34.26
  -6   2   2  860.65   64.76
  -6   2  -2  891.05   31.68
  -6  -2   2  802.97   35.58
  -6   2  -2  888.32   31.36
   6  -2  -2  837.03   36.11
  -6  -2   2  995.51   67.92
  -6  -2   2  972.08   38.10
   6   2   2  819.75   51.97
  -6   2  -2  840.16   32.67
   6   2   2  853.81   34.21
   6  -2  -2  871.50   36.82
   6   2   2  891.17   34.21
   6  -2  -2  957.09   66.84
  -8   2   2  533.46   61.42
  -8  -2  -2  553.66   21.58
   8  -2   2  522.07   23.07
  -8  -2  -2  485.32   49.10
   8  -2   2  626.84   51.72
  -8  -2  -2  552.61   22.34
   8   2  -2  550.18   28.22
   8   2  -2  500.74   57.78
   8  -2   2  548.22   47.35
  -8   2   2  523.52   27.39
  -8   2   2  528.71   26.05
   8  -2   2  558.00   25.22
  -8  -2   2  631.89   64.28
   8   2   2  551.25   24.80
   8  -2  -2  577.17   27.74
  -8   2  -2  523.80   21.51
  -8   2  -2  551.13   21.14
  -8  -2   2  531.67   26.37
   8  -2  -2  532.07   26.86
  -8  -2   2  547.06   27.92
   8   2   2  515.47   47.42
  -8   2  -2  530.21   23.31
   8  -2  -2  495.72   56.97
 -10  -2  -2  126.06    8.93
 -10  -2  -2  150.65   43.20
  10   2  -2  164.77   15.57
 -10   2   2  140.45   14.74
  10  -2   2  124.85   12.70
  10  -2   2  163.73   11.23
  10  -2   2  218.24   45.55
 -10  -2  -2  145.03    8.56
  10  -2   2  112.28   33.45
 -10   2   2  169.62   13.81
  10   2  -2  215.21   52.58
  10   2   2  151.44   12.53
  10  -2  -2  173.51   15.31
 -10  -2   2  133.22   16.06
  10  -2  -2  154.39   14.92
 -10  -2   2  187.71   14.68
  10   2   2   95.63   35.77
 -10  -2   2  127.28   47.16
  10  -2  -2  113.87   43.17
 -12   2   2  101.67   16.42
  12   2  -2   75.26   69.42
  12  -2   2  108.35   54.92
  12   2   2  106.77   12.18
  12  -2  -2   97.69   56.83
 -12  -2   2   -3.53   60.36
  12  -2  -2  142.64   65.17
 -12  -2   2  106.44   17.22
  12   2   2  136.17   55.93
  -1   3   2   34.78    8.62
  -1   3   2   29.37    3.03
   1   3  -2   30.35    3.47
  -1  -3  -2   34.71    2.05
   1  -3   2   33.94    2.40
  -1  -3  -2   39.24    6.90
   1  -3   2   28.03    5.34
   1   3  -2   41.71    9.87
   1   3   2   26.65    5.72
  -1  -3   2   23.60    3.21
   1  -3  -2   28.46    3.00
   1  -3  -2   23.81    7.44
  -1   3  -2   22.06    2.24
  -1   3  -2   38.53    5.94
   1   3   2   25.83    2.21
  -1  -3   2   11.78    7.22
   3  -3   2   68.52    4.05
  -3  -3  -2   73.04    3.43
   3   3  -2   76.32   17.42
   3  -3   2   73.99   10.21
  -3   3   2   81.40    6.02
   3  -3   2   71.72   11.45
  -3  -3  -2   72.43   12.24
  -3  -3  -2   80.21    3.50
  -3   3   2   73.82    6.53
  -3  -3   2   63.52    6.20
   3  -3  -2   79.32    6.07
   3   3   2   69.14    4.85
   3   3   2   77.00   11.78
  -3  -3   2   74.36    5.79
   3   3   2   76.92    5.38
   3  -3  -2   76.88    6.32
   3  -3  -2   94.83   18.95
   3  -3  -2   88.79   17.75
  -3  -3   2   75.23   17.81
   5  -3   2   72.11   15.27
   5  -3   2   88.27   17.40
  -5  -3  -2   59.78    4.24
  -5   3   2   59.13    7.59
   5   3  -2   82.70   23.23
  -5  -3  -2   90.61   19.17
   5  -3   2   73.90    5.72
   5   3  -2   72.05    9.60
  -5  -3  -2   66.43    4.76
  -5   3   2   70.16    7.02
  -5  -3   2   64.86    8.44
   5  -3  -2   70.45    7.26
   5   3   2   60.95    5.70
   5  -3  -2   64.48    7.06
   5   3   2   70.26   16.22
  -5  -3   2   77.11   23.11
   5  -3  -2   54.25   20.30
  -5  -3   2   69.63    7.05
   7   3  -2   73.45   27.79
  -7  -3  -2   73.56    5.69
  -7   3   2   86.12   11.84
   7   3  -2   95.73   12.56
   7  -3   2   80.75    8.83
  -7  -3  -2   74.96   23.06
  -7  -3  -2   68.67    6.10
  -7   3   2   75.81    9.24
   7  -3   2   76.12    6.07
   7  -3   2   77.07   19.84
   7  -3   2   89.56   24.41
   7  -3  -2   81.89   11.13
   7  -3  -2   70.15    9.54
  -7   3  -2   69.36    6.14
   7   3   2   82.05   21.55
  -7   3  -2   77.13    5.17
   7   3   2   63.98    7.33
  -7  -3   2   69.68   10.20
  -7  -3   2   90.76   29.59
   7  -3  -2   87.80   29.39
  -7  -3   2   97.31   11.01
   9   3  -2   14.66    6.92
   9  -3   2   41.31   26.80
  -9   3   2   32.25    7.62
  -9  -3  -2   21.40    4.89
  -9   3   2   24.57    8.27
  -9  -3  -2   16.95    4.04
   9  -3   2   23.46    6.90
   9   3  -2   38.14   30.13
  -9  -3  -2   37.87   28.45
  -9   3  -2   25.87    5.70
  -9  -3   2   18.76    7.45
  -9   3  -2   16.44    3.85
   9  -3  -2   32.49   26.68
   9   3   2   -5.40   22.54
   9   3   2   29.72    7.16
   9  -3  -2   31.02   33.58
   9  -3  -2   28.74    7.83
  -9  -3   2   29.00    7.78
   9  -3  -2   14.01    7.34
  -9   3  -2   25.53    3.90
  -9  -3   2   29.83   32.39
  11  -3   2   12.66    7.04
 -11   3   2    9.12    7.89
  11  -3   2    4.22   29.98
  11  -3   2   89.53   42.31
 -11   3   2   13.61    7.92
  11   3  -2   27.19   44.88
 -11  -3  -2   -1.32   37.82
  11   3   2    7.52   39.67
  11  -3  -2   31.65   45.60
  11   3   2   13.68    7.15
  11  -3  -2   17.01   40.81
 -11  -3   2  -56.93   45.84
 -11  -3   2    8.92    7.74
  11  -3  -2   22.23    8.58
  11  -3  -2   25.40    9.21
   0   4  -2 1082.93   45.72
   0   4   2  970.48   45.38
   0   4  -2 1052.51   37.58
   0  -4   2 1052.86   46.01
   0   4   2  956.93   36.78
   2  -4   2 2231.43   82.89
   2   4  -2 2153.15   94.31
  -2  -4  -2 2101.23   86.11
  -2   4  -2 2241.37   83.66
   2   4   2 2202.27   85.91
   2  -4  -2 2218.98   93.79
  -2  -4   2 2124.39   95.28
   4  -4   2 1966.13   84.11
   4  -4   2 1919.41   79.93
   4   4  -2 1918.68   94.26
  -4  -4  -2 1903.40   84.89
   4   4  -2 1972.27   71.88
   4   4   2 1826.33   81.93
   4  -4  -2 1765.56   90.64
   4  -4  -2 2010.78   98.21
  -4  -4   2 1914.16   70.00
  -4  -4   2 1853.25   95.76
  -6  -4  -2  669.94   48.93
  -6   4   2  693.14   30.71
   6  -4   2  622.53   43.09
   6   4  -2  641.27   30.74
   6   4  -2  585.72   52.35
  -6   4   2  665.21   29.13
   6  -4   2  672.83   27.69
  -6  -4  -2  660.92   25.84
  -6  -4  -2  676.20   26.43
   6  -4   2  663.87   46.95
   6   4   2  714.38   47.16
   6   4   2  694.70   28.56
  -6  -4   2  695.22   30.99
   6  -4  -2  792.88   60.84
   6  -4  -2  643.15   52.29
  -6   4  -2  667.44   25.04
  -6  -4   2  677.49   29.53
   6  -4  -2  666.27   29.82
  -6   4  -2  690.28   25.62
   6  -4  -2  674.40   30.06
  -6  -4   2  719.79   58.68
  -8   4   2  548.44   27.71
   8   4  -2  488.20   27.83
  -8  -4  -2  532.88   22.79
  -8  -4  -2  529.21   21.94
   8  -4   2  602.05   51.15
   8  -4   2  565.86   25.47
   8  -4   2  620.50   48.11
  -8  -4  -2  523.03   51.67
   8   4  -2  686.24   61.71
  -8   4   2  518.18   25.86
   8   4   2  512.45   25.12
  -8  -4   2  563.25   28.36
   8  -4  -2  480.78   51.25
  -8   4  -2  521.41   21.06
  -8  -4   2  609.91   62.02
  -8  -4   2  534.97   26.53
   8  -4  -2  529.30   59.22
  -8   4  -2  525.96   22.59
   8  -4  -2  525.45   26.79
   8  -4  -2  574.81   27.51
   8   4   2  528.33   49.13
  10   4  -2  236.71   60.47
 -10  -4  -2  102.37    8.04
 -10  -4  -2  105.57   39.48
 -10  -4  -2  116.37    8.99
  10  -4   2  135.22   12.57
 -10   4   2  142.63   13.10
  10  -4   2  125.23   41.02
  10  -4   2  144.99   35.48
 -10   4   2  142.94   14.32
  10   4  -2  164.96   15.38
  10  -4  -2  114.87   14.34
  10  -4  -2   74.55   40.88
  10   4   2  132.88   42.03
 -10  -4   2  124.00   50.95
  10   4   2  148.63   12.88
 -10  -4   2  139.14   13.37
 -10  -4   2  133.06   15.11
  10  -4  -2  111.68   46.27
 -10   4  -2  119.58   10.14
  12  -4   2   66.81   52.76
  12  -4   2   81.84   13.18
 -12   4   2   82.29   14.34
 -12  -4  -2  -80.19   48.58
  12   4  -2    1.19   67.08
  12   4   2  100.80   13.09
  12  -4  -2   60.55   48.91
  12  -4  -2   82.13   64.72
  12  -4  -2   83.40   14.43
  12   4   2   37.65   55.65
 -12  -4   2   97.31   16.73
 -12  -4   2    5.38   66.48
   1  -5   2   17.88    2.50
  -1  -5  -2   15.81    2.39
   1  -5   2   14.76    2.56
   1  -5   2    8.95    5.44
  -1   5   2   27.17    8.37
   1   5  -2   20.10    3.76
  -1  -5  -2   11.39    6.36
   1   5  -2   21.08    8.11
  -1   5   2   16.49    3.03
   1   5   2   10.99    5.87
  -1   5  -2   17.14    2.46
   1  -5  -2   21.71    7.37
  -1   5  -2   13.12    6.15
   1   5   2   23.84    3.00
  -1  -5   2   18.32    8.27
  -1  -5   2   21.02    3.58
   1  -5  -2   17.86    3.11
   3   5  -2  135.61   22.28
  -3   5   2  104.24    7.32
  -3  -5  -2  106.74    5.58
  -3   5   2   98.73    7.81
  -3  -5  -2  121.47   17.93
  -3  -5  -2  107.27    5.95
   3   5  -2  109.49    8.15
   3  -5   2  115.59    6.19
   3  -5   2  108.58   11.76
  -3   5  -2  105.22   13.02
   3  -5  -2  137.13   24.05
  -3  -5   2  102.87    8.00
   3  -5  -2  106.27    7.65
   3  -5  -2  119.91   20.31
   3   5   2  130.31   14.90
   3   5   2  100.14    6.75
  -3  -5   2  130.95   23.56
  -5   5   2  209.72   12.58
  -5  -5  -2  210.93   10.55
   5  -5   2  242.64   22.73
  -5  -5  -2  232.42   10.35
   5  -5   2  219.21   11.14
   5   5  -2  200.82   13.55
   5   5  -2  267.62   37.13
  -5  -5  -2  211.64   25.16
  -5   5   2  223.32   13.75
   5  -5   2  201.72   27.85
   5  -5  -2  255.08   30.58
   5  -5  -2  257.17   38.78
  -5   5  -2  199.50    9.28
   5   5   2  223.04   12.19
  -5  -5   2  205.52   13.58
   5   5   2  203.09   23.61
  -5  -5   2  256.72   38.66
  -5  -5   2  208.09   12.61
   5  -5  -2  260.85   13.71
  -7   5   2  118.74   11.13
   7   5  -2  133.03   34.67
   7  -5   2   49.79   21.34
   7  -5   2   46.16   17.13
  -7  -5  -2   78.45   25.30
   7   5  -2   90.95   10.44
  -7  -5  -2   91.29    7.47
  -7   5   2  101.41    9.23
  -7  -5  -2   95.76    6.83
   7  -5   2   90.75    8.42
  -7  -5   2   93.15    9.22
  -7  -5   2   87.05   11.41
   7  -5  -2  105.65   33.63
  -7   5  -2   82.57    5.95
  -7  -5   2   58.90   28.89
   7  -5  -2  144.77   32.68
   7   5   2   92.71    8.96
  -7   5  -2   90.03    6.59
   7   5   2  124.02   28.48
   7  -5  -2   98.02   11.62
  -9   5   2   26.76    7.37
   9   5  -2   16.78    7.36
  -9  -5  -2   22.27    5.15
   9  -5   2   36.83   27.96
   9   5  -2   15.59   30.61
  -9  -5  -2   14.70    4.29
  -9   5   2   11.95    7.12
  -9  -5  -2   42.82   29.60
   9  -5   2   15.02    6.19
   9  -5  -2   13.23   24.67
  -9  -5   2   18.28    7.98
   9  -5  -2    1.01   32.47
  -9  -5   2   33.18   32.10
   9  -5  -2   18.23    7.34
  -9   5  -2   22.45    5.07
   9   5   2  -16.36   26.21
  -9  -5   2   23.75    7.56
  -9   5  -2   14.98    3.45
   9   5   2   18.39    6.46
 -11  -5  -2    7.64    3.82
  11  -5   2  -18.21   42.46
  11  -5   2   46.99   31.61
 -11  -5  -2  -38.52   38.66
  11  -5   2   12.16    7.40
 -11   5   2   13.01    7.66
  11   5  -2   41.55   50.42
 -11  -5   2  -27.70   49.42
  11  -5  -2   -5.99   44.51
  11  -5  -2   53.11   42.24
  11   5   2   20.92   42.64
  11  -5  -2   12.00    8.35
 -11  -5   2   12.26    8.31
  11   5   2   15.19    7.81
   0   6  -2  630.61   32.38
   0   6   2  538.49   21.63
   0  -6  -2  547.83   30.73
   0   6  -2  559.38   22.19
   0   6   2  567.76   31.91
   0  -6  -2  555.06   21.69
   0  -6   2  483.91   30.78
   0  -6   2  570.14   22.13
   2   6  -2 1799.83   67.06
   2   6  -2 1803.17   82.95
  -2   6   2 1810.16   83.74
   2  -6   2 1734.71   74.03
  -2  -6  -2 1808.70   77.94
   2  -6  -2 1934.25   83.02
  -2  -6   2 1828.37   66.91
  -2   6  -2 1880.94   64.03
  -2  -6   2 1791.63   84.33
  -2   6  -2 1708.30   73.82
   2   6   2 1869.46   77.58
  -4   6   2 1002.97   40.71
   4   6  -2  982.66   41.18
  -4  -6  -2 1015.81   37.69
  -4   6   2 1069.95   39.80
  -4  -6  -2  947.94   54.39
   4  -6   2 1045.52   49.67
   4   6  -2  949.31   60.56
  -4  -6  -2 1006.73   37.27
   4   6   2 1008.14   39.19
  -4   6  -2  984.28   36.47
   4   6   2 1011.53   53.38
   4  -6  -2  970.10   59.29
   4   6   2 1000.47   39.63
   4  -6  -2 1075.48   40.34
  -4  -6   2 1022.05   41.18
  -4  -6   2 1001.91   63.73
   4  -6  -2 1057.23   66.05
  -6   6   2  830.33   36.93
  -6   6   2  887.36   35.87
   6   6  -2  866.92   38.10
  -6  -6  -2  874.65   32.96
  -6  -6  -2  882.06   33.54
   6   6  -2  718.39   59.88
   6  -6   2  900.88   34.56
   6  -6   2  851.80   55.98
   6  -6   2  847.82   51.49
  -6  -6  -2  818.32   57.30
   6  -6  -2  843.63   36.42
   6   6   2  896.39   56.18
  -6   6  -2  840.45   31.92
  -6  -6   2  901.01   38.02
   6  -6  -2  794.12   64.53
  -6  -6   2  828.32   35.84
  -6  -6   2  932.91   68.56
   6  -6  -2  794.14   59.31
   6   6   2  879.01   35.72
  -8  -6  -2  478.39   21.61
  -8  -6  -2  490.11   52.73
   8  -6   2  483.64   49.51
  -8  -6  -2  489.22   20.87
   8  -6   2  494.96   23.82
   8  -6   2  451.73   42.55
  -8   6   2  499.53   26.26
  -8   6   2  491.61   24.27
   8   6  -2  504.37   59.96
   8   6  -2  487.62   27.16
   8   6   2  475.62   47.51
   8  -6  -2  331.90   57.32
  -8  -6   2  468.53   24.67
   8  -6  -2  521.93   52.82
  -8   6  -2  493.52   20.43
   8   6   2  478.08   24.36
   8  -6  -2  507.64   25.89
  -8  -6   2  490.75   69.36
  -8  -6   2  493.22   26.60
  -8   6  -2  461.55   19.58
  10  -6   2  212.80   47.56
 -10  -6  -2   95.67    9.05
 -10  -6  -2   99.27    8.10
  10  -6   2  108.83   13.13
 -10  -6  -2  107.08   41.81
  10  -6   2   64.38   28.74
 -10   6   2   96.20   13.18
  10   6  -2  121.40   23.56
 -10   6   2  110.13   13.14
  10   6  -2  120.32   51.26
  10   6   2  136.75   41.63
  10  -6  -2  101.86   42.21
 -10  -6   2  142.80   16.10
  10  -6  -2   97.65   13.89
  10   6   2  112.92   12.62
 -10  -6   2  141.16   17.67
 -10  -6   2  159.92   51.81
  12   6  -2  168.60   74.96
 -12   6   2   87.25   15.07
  12  -6   2   25.11   53.92
 -12  -6  -2   15.41   54.11
  12  -6   2   75.73   13.10
 -12  -6   2  -26.48   58.95
  12  -6  -2   70.21   53.14
 -12  -6   2   92.92   16.09
  12  -6  -2   93.96   76.62
  12   6   2  138.66   61.37
 -12  -6   2   77.35   13.87
  12  -6  -2   80.20   14.27
  12   6   2  144.56   14.22
  -1   7   2   84.09   15.68
  -1   7   2   51.13    4.79
   1  -7   2   51.83    4.64
   1   7  -2   61.96   13.34
   1  -7   2   43.32   10.13
   1   7  -2   51.38    5.19
  -1  -7  -2   60.96    4.78
  -1  -7   2   65.18   13.75
  -1  -7   2   48.51    4.98
   1   7   2   64.03   12.66
   1  -7  -2   53.36    4.94
  -1   7  -2   49.59    4.29
   1   7   2   57.31    4.68
  -1   7  -2   49.49   10.60
   1  -7  -2   67.34   13.17
   3  -7   2  129.90   14.47
  -3   7   2  120.53    8.22
  -3   7   2  128.45    9.17
   3   7  -2  126.60    9.25
   3  -7   2  117.64    7.34
   3   7  -2  141.54   23.50
  -3  -7  -2  115.69    7.20
  -3  -7  -2  158.21   19.39
  -3   7   2  105.47   21.22
  -3   7  -2  124.22    6.69
   3  -7  -2  123.21    8.64
   3  -7  -2  150.10   23.34
  -3  -7   2  146.50   25.57
  -3  -7   2  125.81    9.29
   3   7   2  118.32    8.17
  -3   7  -2   99.25   15.87
   3   7   2  130.46   16.37
   5  -7   2  128.54    8.43
   5   7  -2  129.07   27.91
  -5  -7  -2  124.39    7.62
   5   7  -2  133.79   10.93
   5  -7   2  143.98   25.66
  -5  -7  -2  131.36   24.32
   5  -7   2  131.59   19.80
  -5   7   2  128.49   10.40
  -5  -7  -2  115.33    8.15
  -5   7   2  128.03    9.53
   5  -7  -2  129.51   10.26
   5   7   2  117.35    9.32
  -5  -7   2  139.41    9.73
   5   7   2  172.05   25.47
  -5   7  -2  121.45    7.10
   5  -7  -2  165.82   28.96
  -5  -7   2  169.00   32.89
   5  -7  -2  185.63   35.08
  -5  -7   2  113.15   10.55
  -7  -7  -2  103.46   27.40
  -7  -7  -2  107.50    8.01
  -7  -7  -2   94.95    8.30
   7   7  -2  122.66   32.41
   7   7  -2   89.99   11.71
   7  -7   2  145.98   30.84
  -7   7   2  108.21    9.94
   7  -7   2   76.92   20.86
  -7   7   2  116.21   11.38
   7  -7   2  108.17    9.64
   7  -7  -2  120.09   10.99
  -7  -7   2  111.02   10.51
   7   7   2   93.47   27.16
  -7  -7   2   78.90   30.59
   7   7   2  102.92   10.12
  -7  -7   2  116.16   11.90
   7  -7  -2   95.75   27.48
  -7   7  -2   93.94    6.89
   7  -7  -2  133.38   37.18
   9  -7   2   25.56    7.38
  -9  -7  -2   45.97   29.70
  -9   7   2   15.35    7.16
  -9  -7  -2   15.36    4.75
  -9  -7  -2   21.32    5.61
  -9   7   2   24.61    7.46
   9  -7   2   24.30   27.28
   9   7  -2    8.73    7.13
   9   7  -2    6.61   32.78
  -9  -7   2    5.20   33.03
   9  -7  -2    8.68   27.18
  -9  -7   2   19.06    7.35
  -9   7  -2   17.40    3.84
   9   7   2   23.75    7.52
   9  -7  -2    7.20   29.85
  -9  -7   2    8.02    7.31
   9  -7  -2   19.81    7.76
   9   7   2   20.91   28.65
  11  -7   2   38.03   45.96
 -11   7   2   18.94    9.28
 -11  -7  -2   22.06   44.40
  11  -7   2    6.56    6.66
 -11  -7  -2   17.79    4.62
  11   7  -2   26.83   44.88
  11  -7   2   70.41   34.21
  11  -7  -2   33.09   47.30
  11   7   2    9.66   44.13
  11  -7  -2   10.50    7.97
 -11  -7   2   13.42    8.84
 -11  -7   2   14.00    9.18
 -11  -7   2  -60.61   50.87
  11  -7  -2  -21.13   36.81
  11   7   2    2.85    6.49
   0   8  -2  746.24   30.01
   0  -8   2  782.34   30.07
   0  -8  -2  787.93   29.72
   0  -8  -2  737.42   41.60
   0   8  -2  699.11   41.18
   0   8   2  811.58   43.17
   0  -8   2  764.91   43.12
   0   8   2  747.61   29.51
  -2   8   2 1968.66   89.12
   2   8  -2 1776.45   68.13
  -2  -8  -2 1787.40   65.95
   2  -8   2 1908.79   66.28
   2  -8   2 1875.98   79.80
   2   8  -2 1853.10   86.25
  -2   8   2 1804.09   66.69
  -2   8  -2 1859.31   65.76
   2   8   2 1789.40   81.24
   2  -8  -2 1796.92   67.04
  -2   8  -2 1789.01   78.70
  -2  -8   2 1760.47   87.02
  -2  -8   2 1813.57   67.97
   2  -8  -2 1720.75   82.77
  -2   8  -2 1887.29   65.69
   2   8   2 1862.24   66.89
  -4  -8  -2  892.95   34.69
   4  -8   2  919.87   47.44
   4  -8   2  919.60   34.81
  -4   8   2  897.67   37.32
  -4   8   2  848.39   35.68
   4   8  -2  898.26   38.04
  -4  -8  -2  918.83   54.26
   4   8  -2  952.32   59.82
   4  -8  -2  884.70   56.47
  -4   8  -2  836.03   33.58
   4  -8  -2  903.87   36.66
  -4   8  -2  942.69   51.63
  -4  -8   2  924.19   37.87
  -4  -8   2  811.68   58.60
   4   8   2  906.65   36.31
   4   8   2  967.77   53.09
   4   8   2  890.31   36.80
  -6   8   2  599.62   27.68
  -6   8   2  558.57   28.79
   6  -8   2  633.20   27.00
  -6  -8  -2  618.73   25.62
  -6  -8  -2  666.16   26.51
   6  -8   2  645.30   43.33
   6  -8   2  650.43   49.84
  -6  -8  -2  614.98   50.51
   6   8  -2  601.04   54.74
   6   8  -2  605.28   30.24
  -6  -8   2  655.27   30.30
   6  -8  -2  682.04   54.68
  -6   8  -2  614.65   24.82
  -6  -8   2  628.81   57.33
   6  -8  -2  628.24   29.20
  -6  -8   2  666.43   28.69
   6   8   2  664.92   48.82
   6  -8  -2  545.27   55.41
   6   8   2  622.69   28.57
  -8   8   2  371.81   22.28
   8  -8   2  400.14   39.81
   8  -8   2  342.89   50.11
   8  -8   2  379.45   20.41
   8   8  -2  370.37   23.63
  -8  -8  -2  359.32   54.42
  -8   8   2  368.87   20.57
   8   8  -2  435.76   53.97
  -8  -8  -2  364.16   17.73
  -8  -8  -2  377.95   18.57
   8   8   2  400.61   21.66
  -8  -8   2  371.37   21.25
  -8  -8   2  378.47   60.18
  -8   8  -2  367.60   16.50
   8  -8  -2  391.44   22.27
  -8  -8   2  384.72   23.32
   8  -8  -2  256.21   45.09
   8   8   2  348.70   48.09
   8  -8  -2  315.95   56.13
  10  -8   2   53.82   39.72
 -10  -8  -2  128.82   44.96
 -10   8   2  117.36   14.37
 -10   8   2  113.54   13.33
 -10  -8  -2   92.92    9.37
  10   8  -2  134.88   52.64
 -10  -8  -2   82.88    8.16
  10  -8   2   83.98   11.88
  10  -8   2   80.05   29.76
 -10  -8   2   92.68   13.46
 -10  -8   2   79.56   46.21
  10  -8  -2   89.12   13.63
  10   8   2   73.55   38.72
  10   8   2  102.21   14.52
  10  -8  -2   30.84   41.34
  -1   9   2  121.23    7.89
   1   9  -2  103.42   18.73
  -1   9   2  105.92   19.09
  -1  -9  -2  110.65    7.63
   1  -9   2  110.24   17.29
  -1  -9  -2  161.78   22.88
   1  -9   2  116.16    7.88
   1   9  -2   99.01    8.07
  -1  -9   2  104.03    8.03
  -1  -9   2  116.52    8.40
   1   9   2  138.48   19.69
   1   9   2  120.26    8.07
   1  -9  -2  135.87   19.43
  -1   9  -2  122.15    7.69
   1  -9  -2  129.34    8.16
  -1   9  -2  113.19   17.13
  -1  -9   2  131.73   21.87
   3   9  -2   19.71   13.39
   3  -9   2   39.89    5.42
   3  -9   2   27.46   10.80
  -3   9   2   39.68   15.63
  -3   9   2   37.87    5.84
   3   9  -2   38.13    6.18
  -3  -9  -2   38.37    5.42
  -3  -9   2   38.01    6.96
   3   9   2   40.48    6.25
  -3  -9   2   43.16   17.19
   3  -9  -2   42.85    6.25
  -3   9  -2   35.77    4.74
   3   9   2   54.66   14.67
  -3   9  -2   26.95   11.47
   3  -9  -2   47.69   15.76
  -5   9   2  110.57   10.08
  -5  -9  -2  111.59    8.57
  -5  -9  -2  114.46   25.47
   5   9  -2  113.39   27.15
  -5   9   2  110.92    9.14
  -5  -9  -2  116.46    7.74
   5   9  -2  110.33   10.79
   5  -9   2  103.30    8.42
   5  -9   2  126.81   20.96
  -5   9  -2  114.62    6.80
   5  -9  -2  104.55    9.92
   5  -9  -2  103.60   23.78
   5  -9  -2  123.74   31.04
  -5   9  -2  130.81   24.34
  -5   9  -2  104.47    7.38
  -5  -9   2  110.58   10.65
   5   9   2  114.64    9.74
  -5  -9   2  124.39   29.60
   5   9   2  165.18   26.86
  -7  -9  -2   49.98    7.63
  -7   9   2   62.21    8.95
  -7  -9  -2   77.01   25.30
   7   9  -2   62.30    9.79
   7  -9   2   65.01    8.98
  -7  -9  -2   72.04    7.12
   7  -9   2   84.63   26.88
   7  -9   2   48.39   18.79
  -7   9   2   54.03    9.35
   7   9  -2   49.92   28.34
  -7  -9   2   34.57   25.24
   7  -9  -2   67.70   27.85
  -7  -9   2   57.51    9.33
   7  -9  -2   61.05    9.78
  -7  -9   2   70.30   11.27
   7  -9  -2   52.65   29.31
   7   9   2   59.88    9.96
  -7   9  -2   65.77    6.40
   7   9   2   25.96   21.39
  -9  -9  -2   36.26   32.03
  -9  -9  -2   12.96    5.75
  -9   9   2    1.70    5.79
  -9  -9  -2    2.63    4.44
   9  -9   2   -0.41   28.47
   9   9  -2   19.16    8.89
   9   9  -2  -19.30   30.69
   9  -9   2   14.58    6.77
  -9   9   2   12.16    7.32
   9   9   2   12.64    6.93
  -9  -9   2    3.63   32.80
  -9   9  -2    9.24    3.85
   9  -9  -2   46.35   27.56
  -9  -9   2   33.75    8.37
   9   9   2    6.33   26.82
  -9  -9   2   11.50    7.60
  -9  -9   2    6.89    6.91
   9  -9  -2  -12.12   35.96
   9  -9  -2    7.98    6.73
  11  -9   2    9.31    7.46
 -11  -9  -2   11.92    5.17
  11   9  -2  -28.68   49.34
  11  -9   2   29.82   48.98
 -11   9   2   18.50    8.17
  11  -9   2    4.78   31.95
 -11  -9  -2   81.80   49.44
  11  -9  -2   21.87   50.27
  11   9   2   12.08   44.29
 -11  -9   2   18.52   10.51
  11  -9  -2   19.15    9.14
 -11  -9   2   21.79   52.03
  11  -9  -2  -43.66   35.63
  11   9   2   28.35    9.05
 -11  -9   2   22.62    9.71
   0 -10   2 1147.63   42.92
   0 -10  -2 1090.51   42.29
   0  10   2 1132.77   42.48
   0  10  -2 1172.24   59.10
   0 -10   2 1067.84   59.21
   0  10  -2 1161.28   43.25
   0 -10  -2  981.41   57.15
   0  10   2 1046.57   57.80
  -2  10   2 1731.40   65.01
  -2 -10  -2 1616.22   83.64
   2 -10   2 1754.97   81.42
  -2 -10  -2 1771.31   64.80
   2  10  -2 1519.21   66.12
  -2  10   2 1961.47   90.63
   2  10  -2 1795.09   86.90
   2 -10   2 1827.02   65.02
   2  10   2 1913.75   66.10
   2  10   2 1856.41   83.82
  -2  10  -2 1791.04   64.59
  -2  10  -2 1794.01   80.96
   2 -10  -2 1521.40   80.94
   2 -10  -2 1798.30   65.69
  -2  10  -2 1786.92   64.70
  -2 -10   2 1772.80   66.64
  -2 -10   2 1749.73   88.41
  -2 -10   2 1781.75   66.39
  -4  10   2  634.85   29.02
   4  10  -2  624.56   29.70
  -4 -10  -2  665.64   26.91
   4 -10   2  688.00   41.08
  -4  10   2  619.89   27.35
   4  10  -2  751.16   52.73
   4 -10   2  663.45   26.78
  -4  10   2  631.82   50.93
   4 -10  -2  627.61   28.16
   4  10   2  614.05   28.17
   4  10   2  609.68   43.45
  -4 -10   2  637.23   29.34
  -4  10  -2  681.63   45.37
   4 -10  -2  609.26   46.35
  -4 -10   2  632.61   28.96
   4  10   2  643.58   29.06
  -4  10  -2  598.32   25.72
  -4 -10   2  666.13   52.77
   6 -10   2  405.14   19.78
   6 -10   2  457.67   45.14
  -6  10   2  390.43   20.11
  -6  10   2  416.04   22.15
   6 -10   2  413.17   35.20
  -6 -10  -2  397.05   19.18
  -6 -10  -2  409.26   18.61
   6  10  -2  388.18   22.78
   6  10  -2  434.42   46.92
  -6 -10  -2  364.58   39.67
  -6  10  -2  394.41   17.16
   6  10   2  390.27   41.18
  -6  10  -2  384.04   17.80
  -6 -10   2  405.01   22.74
   6 -10  -2  394.68   21.62
   6  10   2  381.81   21.34
   6 -10  -2  354.13   40.25
   6 -10  -2  471.47   51.82
  -6 -10   2  327.32   52.24
   8 -10   2  254.97   16.82
   8 -10   2  310.24   48.97
   8  10  -2  266.47   20.56
  -8 -10  -2  249.72   14.49
  -8 -10  -2  405.44   55.36
   8 -10   2  230.44   36.46
  -8 -10  -2  273.56   15.70
  -8  10   2  281.71   17.42
   8  10  -2  295.76   53.63
  -8  10   2  259.14   18.53
   8 -10  -2  233.66   17.88
  -8 -10   2  260.48   56.05
  -8 -10   2  292.88   20.20
  -8 -10   2  276.35   19.29
   8 -10  -2  360.84   59.07
   8  10   2  280.41   18.82
   8  10   2  240.69   43.37
  -8 -10   2  281.27   17.77
  -8  10  -2  245.07   13.40
   8 -10  -2  190.44   41.76
  10 -10   2   65.67   30.13
 -10  10   2   84.01   13.02
 -10  10   2   98.92   12.53
 -10 -10  -2   92.63   10.41
  10 -10   2   68.99   11.53
 -10 -10  -2   82.48    9.24
 -10 -10  -2   56.86   40.83
  10  10  -2  -23.97   42.16
  10 -10   2   49.03   39.29
  10  10   2   59.14   40.00
 -10 -10   2   86.82   13.72
  10  10   2   70.74   12.34
  10 -10  -2   45.53   35.25
  10 -10  -2   62.46   45.79
 -10 -10   2   28.48   46.36
  10 -10  -2   72.82   13.14
 -10 -10   2   95.35   16.22
  -1  11   2  147.07    9.80
  -1  11   2  141.86   23.81
   1 -11   2  161.06   10.18
   1 -11   2  181.69   25.59
   1  11  -2  150.82   10.64
   1  11  -2  125.29   21.93
  -1 -11  -2  167.18   10.21
  -1 -11  -2  159.93   24.72
   1  11   2  153.52   10.25
  -1  11  -2  148.55    9.93
   1 -11  -2  171.89   10.44
   1 -11  -2  181.14   21.54
  -1  11  -2  160.32    9.95
  -1 -11   2  167.86   27.31
  -1  11  -2  146.78   22.68
  -1 -11   2  154.29   10.50
   1  11   2  180.69   21.83
   3 -11   2   98.21    8.25
  -3  11   2  152.35   28.22
   3  11  -2   86.41    9.09
   3 -11   2  150.15   22.56
  -3  11   2  134.72    9.10
   3  11  -2  122.55   25.19
  -3 -11  -2  122.73    8.82
  -3 -11  -2  145.45   26.60
  -3  11  -2  151.74   23.53
   3  11   2   98.20    8.91
   3  11   2  131.00   23.27
  -3 -11   2   99.80    9.41
  -3 -11   2  137.41   28.43
   3 -11  -2  109.41    9.27
   3 -11  -2  106.68   21.38
  -3  11  -2   95.17    7.71
  -3 -11   2  100.29    9.35
   5 -11   2   63.11    8.15
  -5  11   2   57.26    7.94
  -5  11   2   44.76    7.55
   5 -11   2   78.23   17.60
   5  11  -2   59.62    9.24
  -5 -11  -2   55.44    7.88
   5  11  -2   46.89   24.14
  -5  11  -2   94.97   24.32
  -5 -11   2   67.42   10.07
   5 -11  -2   58.93   20.88
   5  11   2   40.24   16.57
   5 -11  -2   56.50    8.75
  -5 -11   2   54.08   24.22
  -5  11  -2   53.62    6.80
   5  11   2   45.56    8.11
  -5 -11   2   51.61    9.26
   7 -11   2   49.40   19.67
   7  11  -2   50.91   29.22
   7 -11   2   46.08    8.07
  -7 -11  -2   52.52    7.35
   7 -11   2   27.83   22.69
   7  11  -2   56.56    9.98
  -7 -11  -2   41.23    7.66
  -7  11   2   57.90   10.01
  -7 -11  -2   32.89   25.73
  -7  11   2   53.63    8.94
  -7  11  -2   48.90    6.68
   7 -11  -2   53.20    9.58
   7  11   2   44.30    9.43
   7 -11  -2   63.02   31.48
   7  11   2   91.34   25.46
  -7 -11   2   48.92    9.71
  -7 -11   2   39.19   28.90
  -7 -11   2   56.96    9.39
  -7 -11   2   65.08   10.89
  -7  11  -2   52.74    6.04
   7 -11  -2   78.99   29.81
   9 -11   2    6.79    6.10
  -9 -11  -2   11.86    5.90
  -9 -11  -2    6.86    4.75
  -9  11   2    9.84    7.27
   9 -11   2   61.26   34.64
   9  11  -2   36.40   37.72
  -9 -11  -2   13.62   32.01
   9 -11   2   20.18   21.01
  -9  11   2    5.22    6.22
   9  11   2    6.19    6.68
   9 -11  -2    7.69   37.07
  -9 -11   2   19.91    8.67
  -9 -11   2    2.97    7.05
   9  11   2   35.48   29.16
  -9 -11   2    5.69    6.21
   9 -11  -2    7.00    6.64
   9 -11  -2    7.59   27.84
  -9  11  -2    8.86    4.17
  -9 -11   2   13.21   41.54
 -11 -11  -2    5.44   43.86
 -11 -11  -2   14.37    5.67
 -11  11   2    6.15    8.00
  11 -11   2    9.77    7.82
  11  11  -2   28.07   57.04
  11 -11   2  -73.26   47.52
  11  11   2   24.44   50.10
  11 -11  -2    2.03    8.25
 -11 -11   2    6.37    8.89
 -11 -11   2   25.76   10.64
  11 -11  -2   79.00   48.40
 -11 -11   2   37.79   64.02
  11 -11  -2   18.43   57.83
   0  12   2  868.47   35.97
   0 -12   2  960.87   36.67
   0  12  -2  904.63   36.79
   0 -12  -2  833.15   53.38
   0 -12   2  820.47   53.90
   0  12   2  886.54   54.03
   0 -12  -2  919.55   36.21
   0  12  -2  896.17   53.65
   2 -12   2  791.31   49.28
   2  12  -2  846.97   53.63
  -2  12   2  766.92   31.84
  -2 -12  -2  769.41   31.63
   2 -12   2  817.50   32.08
   2  12  -2  753.96   33.64
  -2 -12  -2  687.86   50.32
  -2  12   2  781.56   54.09
   2  12   2  724.72   48.66
  -2 -12   2  820.38   33.24
  -2  12  -2  725.30   31.32
   2  12   2  738.93   32.46
  -2  12  -2  751.68   31.69
  -2  12  -2  790.49   48.27
  -2 -12   2  691.17   52.94
   2 -12  -2  860.88   32.90
   2 -12  -2  737.40   48.40
  -4 -12  -2  428.60   42.27
   4 -12   2  460.08   36.58
  -4  12   2  440.12   21.40
   4  12  -2  425.04   23.62
   4  12  -2  554.50   46.65
   4 -12   2  461.79   21.08
  -4 -12  -2  481.34   21.31
  -4  12   2  509.37   47.52
   4 -12  -2  470.00   22.60
  -4 -12   2  446.16   23.46
  -4 -12   2  439.81   22.93
   4  12   2  431.59   23.08
   4  12   2  482.95   41.91
   4 -12  -2  460.97   41.72
  -4  12  -2  464.92   39.49
  -4 -12   2  368.38   42.79
  -4  12  -2  403.61   19.98
   4  12   2  443.52   22.73
  -6 -12  -2  396.08   20.45
  -6  12   2  414.26   23.18
   6 -12   2  442.49   38.32
   6  12  -2  446.74   25.13
   6 -12   2  411.96   21.08
  -6 -12  -2  412.63   19.75
  -6  12   2  406.73   21.33
   6  12  -2  412.24   49.53
   6 -12  -2  415.23   43.80
  -6  12  -2  414.08   19.39
   6 -12  -2  517.19   58.29
  -6 -12   2  413.24   23.52
  -6  12  -2  419.47   18.61
   6 -12  -2  401.70   22.59
  -6 -12   2  300.93   50.33
  -6 -12   2  442.26   24.26
   6  12   2  393.01   22.75
   6  12   2  433.45   44.62
   8  12  -2  203.90   18.56
   8  12  -2  258.59   49.08
  -8 -12  -2  146.71   37.80
  -8  12   2  213.94   15.28
  -8 -12  -2  173.40   13.51
  -8 -12  -2  204.05   13.08
  -8  12   2  202.49   16.99
   8 -12   2  193.42   43.67
   8 -12   2  195.01   15.06
   8 -12  -2  143.87   36.00
   8 -12  -2  185.72   49.78
   8  12   2  155.57   38.58
  -8 -12   2  168.73   15.38
   8 -12  -2  196.17   17.01
  -8  12  -2  181.35   11.74
  -8 -12   2  182.39   16.96
  -8 -12   2  172.73   49.70
  -8  12  -2  202.03   11.48
  -8 -12   2  229.81   18.25
   8  12   2  195.54   16.56
 -10 -12  -2   70.60    9.76
 -10 -12  -2   59.64    8.19
  10 -12   2   45.97   28.76
 -10  12   2   61.40   12.12
 -10 -12  -2   -8.58   42.59
  10 -12   2   94.77   45.48
  10 -12   2   56.47   11.08
  10  12  -2   27.01   44.84
 -10 -12   2   68.78   14.14
  10 -12  -2   45.62   11.27
 -10 -12   2   44.95   11.85
  10 -12  -2   49.18   41.79
  10 -12  -2   15.10   47.73
 -10 -12   2   80.34   50.95
  10  12   2   61.22   42.83
  -1  13   2   62.37    7.85
  -1 -13  -2   83.17   21.00
   1  13  -2  104.09   22.03
  -1 -13  -2   74.59    8.60
   1 -13   2   76.88   19.30
   1  13  -2   69.81    7.97
   1 -13   2   75.42    8.86
  -1  13   2   77.10   21.05
   1 -13  -2   70.97    8.31
   1  13   2   86.85    8.44
  -1  13  -2   75.78    7.77
  -1  13  -2   77.78    8.00
   1 -13  -2   84.46   20.32
  -1 -13   2   57.50   19.34
   1  13   2   66.97   18.89
  -1  13  -2   90.72   21.34
  -1 -13   2   71.95    8.85
   3 -13   2   25.02    5.40
  -3  13   2   26.29    5.91
   3 -13   2   31.87   15.28
  -3 -13  -2   18.95    5.27
  -3  13   2   12.50   16.59
  -3 -13  -2   25.60   15.87
   3  13  -2   13.25    5.89
   3  13  -2   14.14   15.61
   3 -13  -2   27.52   14.07
   3  13   2   16.86    5.70
  -3 -13   2   25.39   19.24
  -3  13  -2   21.81   13.77
   3 -13  -2   14.01    5.51
  -3  13  -2   22.34    5.21
   3  13   2   10.80   13.71
  -3 -13   2   16.74    5.79
  -5 -13  -2   51.88   22.36
  -5 -13  -2   34.24    6.81
  -5  13   2   42.65    7.82
   5 -13   2   20.08   15.27
  -5  13   2   36.79   23.21
   5 -13   2   47.34    7.71
   5  13  -2   28.50    7.40
   5  13  -2    1.38   20.49
  -5  13   2   36.46    7.73
  -5 -13   2   34.23   23.18
   5  13   2   39.41   20.32
   5 -13  -2   39.21    8.14
  -5  13  -2   28.02   19.56
   5 -13  -2    5.29   16.84
   5  13   2   42.44    8.72
  -5 -13   2   33.69    7.03
  -5  13  -2   32.33    5.98
  -5 -13   2   52.85    9.71
  -7  13   2   41.62    7.98
   7  13  -2   23.32   28.10
   7 -13   2   24.03   19.10
  -7 -13  -2   31.84    7.35
   7 -13   2   32.52    7.75
  -7 -13  -2   44.51    7.38
   7  13  -2   44.35   10.09
  -7  13   2   34.32    8.67
   7 -13   2   43.58   28.59
   7  13   2   38.98   23.04
  -7 -13   2   32.62    9.12
  -7 -13   2   36.19    8.15
  -7 -13   2   30.36    7.44
   7  13   2   40.13    8.77
   7 -13  -2   47.22   24.41
   7 -13  -2   29.16    8.50
   7 -13  -2   23.07   29.11
  -7 -13   2   60.95   33.94
  -7  13  -2   43.78    6.45
  -7  13  -2   53.62    7.48
   9  13  -2   24.53   42.37
  -9 -13  -2   55.86   38.99
   9 -13   2   -3.63    5.76
  -9  13   2    6.01    6.28
  -9 -13  -2    9.28    6.12
   9 -13   2   44.04   24.53
  -9  13   2    8.59    7.38
   9 -13   2   20.39   34.41
  -9 -13  -2   11.62    5.78
  -9 -13   2    3.94    7.38
   9 -13  -2   17.31   44.61
   9  13   2   54.09   33.44
   9 -13  -2    4.02    7.40
  -9  13  -2   10.26    4.69
  -9 -13   2   20.59   40.49
   9  13   2    4.75    5.66
  -9 -13   2    3.36    7.99
 -11 -13  -2   89.42   60.74
 -11 -13  -2    7.37    5.79
 -11  13   2   12.68    8.70
  11  13  -2  105.51   72.69
  11 -13   2    5.09    7.57
 -11 -13  -2    0.22    1.75
  11 -13   2   -3.90   54.57
  11 -13  -2   25.91   60.72
  11 -13  -2    2.63   42.11
  11 -13  -2    3.35    8.38
 -11 -13   2   17.19    9.98
  11  13   2  -53.94   53.15
 -11 -13   2  -55.90   58.01
   0 -14   2  224.40   33.33
   0  14  -2  213.57   30.01
   0 -14   2  168.59   11.81
   0  14   2  165.67   11.70
   0 -14  -2  184.11   29.72
   0  14  -2  146.04   11.55
   0 -14  -2  163.44   11.72
   0  14   2  164.74   27.34
  -2  14   2  550.40   46.89
  -2 -14  -2  494.42   24.02
   2 -14   2  536.21   24.36
  -2 -14  -2  434.36   42.16
   2  14  -2  523.69   26.11
  -2  14   2  538.93   24.36
   2 -14   2  464.54   40.16
   2  14  -2  580.94   46.11
  -2  14  -2  519.75   41.79
   2 -14  -2  556.14   25.21
  -2  14  -2  508.23   24.08
   2 -14  -2  572.84   43.57
  -2 -14   2  563.34   25.61
  -2 -14   2  638.24   50.10
   2  14   2  603.57   44.46
   2  14   2  514.41   24.97
  -2  14  -2  459.82   23.90
  -4 -14  -2  372.93   44.66
   4 -14   2  390.45   35.86
  -4  14   2  397.96   20.33
  -4 -14  -2  401.45   20.11
   4 -14   2  376.46   19.75
   4  14  -2  389.87   22.73
   4  14  -2  412.71   44.66
  -4  14   2  393.36   45.35
  -4  14  -2  388.53   19.39
   4  14   2  420.19   40.14
   4 -14  -2  416.73   21.73
  -4 -14   2  447.20   22.42
  -4 -14   2  436.05   47.40
   4  14   2  346.27   21.54
   4  14   2  390.37   21.75
  -4  14  -2  353.12   39.25
   4 -14  -2  367.48   38.19
   6 -14   2  226.17   34.40
  -6  14   2  280.92   17.17
  -6  14   2  269.12   18.62
   6  14  -2  251.41   47.26
   6 -14   2  262.80   16.88
  -6 -14  -2  276.88   16.45
   6  14  -2  302.23   20.85
  -6 -14  -2  383.70   55.32
  -6 -14   2  220.52   46.14
  -6 -14   2  263.97   18.63
  -6  14  -2  277.96   14.83
   6  14   2  228.53   17.98
  -6  14  -2  260.22   15.32
   6 -14  -2  323.45   39.31
  -6  14  -2  265.05   43.29
  -6 -14   2  294.61   19.98
   6  14   2  240.70   37.93
   6 -14  -2  281.08   18.96
   8 -14   2   99.68   31.84
   8  14  -2  195.47   47.43
  -8  14   2  179.33   14.84
   8 -14   2   99.95   39.53
  -8 -14  -2  163.41   12.43
  -8  14   2  190.65   17.08
   8 -14   2  169.79   14.77
  -8 -14  -2  163.01   13.29
  -8  14  -2  152.98   10.99
   8 -14  -2  156.88   15.68
   8  14   2  199.75   16.63
  -8 -14   2  118.93   19.92
   8 -14  -2  145.80   40.12
   8  14   2  157.99   37.98
  -8 -14   2  175.46   17.42
   8 -14  -2  149.90   47.05
  -8 -14   2  162.69   18.06
  -8  14  -2  153.33   11.47
  -8 -14   2   86.36   43.53
 -10 -14  -2   41.24    8.59
  10 -14   2    9.59   28.92
  10 -14   2   26.62    9.42
 -10  14   2   48.37   12.24
  10 -14   2   92.22   48.64
  10  14  -2   84.01   55.39
 -10 -14  -2   28.89   49.21
  10 -14  -2   18.03    9.80
 -10 -14   2   45.65   49.99
  10 -14  -2   32.78   42.19
  10  14   2   17.05   37.56
  10 -14  -2  136.50   61.08
 -10 -14   2   36.71   11.16
  -1 -15  -2   18.04    5.66
  -1  15   2   19.32    5.60
  -1 -15  -2   26.72   16.20
  -1  15   2   30.24   16.70
   1 -15   2    8.61   13.69
   1  15  -2   22.64    6.15
   1  15  -2   -7.43   13.78
   1 -15   2   21.29    5.78
   1  15   2   21.13    6.13
  -1 -15   2   38.21   19.37
   1  15   2   13.20   12.95
  -1  15  -2   38.10   17.30
   1 -15  -2   14.64   16.79
  -1  15  -2   34.73    6.78
  -1  15  -2   27.49    6.47
   1 -15  -2   16.28    5.69
  -1 -15   2   28.22    6.90
   3  15  -2   63.73   10.67
  -3 -15  -2   33.08   20.57
   3  15  -2   58.16   22.94
   3 -15   2   29.73   16.28
  -3 -15  -2   54.56    8.34
   3 -15   2   43.88    7.58
  -3  15   2   52.87    8.15
  -3  15   2   13.67   18.30
  -3 -15   2   43.21    8.28
  -3 -15   2   28.05   19.80
   3 -15  -2   45.89   18.40
  -3  15  -2   26.63   17.76
   3  15   2   36.03    7.80
   3  15   2   44.91   19.84
   3 -15  -2   38.76    7.60
  -3  15  -2   43.77    7.60
  -5  15   2   54.50    8.97
   5  15  -2   49.32   27.77
   5  15  -2   50.06   10.99
   5 -15   2   44.28   18.24
  -5 -15  -2   51.94   26.71
   5 -15   2   55.75    8.91
  -5 -15  -2   51.13    8.82
  -5  15   2   32.17   26.35
  -5 -15   2   48.91   29.65
   5  15   2   57.03   10.15
   5 -15  -2   22.66   19.50
   5  15   2   57.76   10.40
   5  15   2   64.59   24.45
  -5 -15   2   47.55    9.38
  -5  15  -2   58.92    8.43
   5 -15  -2   50.56    9.75
  -5  15  -2   44.49   23.49
  -7 -15  -2   40.69    8.45
  -7  15   2   42.00    9.45
  -7  15   2   56.45    9.62
   7  15  -2   34.41   32.13
  -7 -15  -2   63.62   33.88
  -7 -15  -2   48.26    7.82
   7 -15   2   41.25    9.01
   7 -15   2   44.87   25.55
   7  15   2   63.41   12.20
  -7  15  -2   48.94    8.07
  -7 -15   2   58.92   35.49
   7 -15  -2   66.41   39.20
  -7  15  -2   56.88    7.87
   7 -15  -2   47.05   10.16
   7  15   2   30.71   26.24
   7 -15  -2   82.81   29.69
  -7 -15   2   42.02   10.11
   9 -15   2   14.19    8.31
  -9 -15  -2    1.60    4.93
  -9  15   2    9.77    8.11
   9 -15   2   26.09   41.84
  -9 -15  -2    6.33    6.75
   9  15  -2  -16.42   49.50
   9 -15   2   -6.63   25.58
  -9 -15   2    6.88    8.46
   9 -15  -2   12.29   51.61
   9 -15  -2    9.96    8.42
   9  15   2   -0.25   36.64
  -9 -15   2   40.37   52.48
   0 -16  -2  417.46   41.88
   0  16  -2  348.73   19.95
   0 -16  -2  357.61   19.32
   0  16   2  327.21   19.16
   0  16  -2  325.78   36.37
   0 -16   2  371.44   19.89
   0  16   2  390.83   39.43
   0 -16   2  349.07   38.49
   2 -16   2  453.95   41.61
   2  16  -2  343.81   20.81
   2  16  -2  360.35   41.22
  -2 -16  -2  365.69   19.46
  -2  16   2  348.54   40.79
   2 -16   2  376.98   19.74
  -2  16   2  313.58   19.00
  -2 -16  -2  363.35   41.00
   2 -16  -2  292.57   35.68
   2  16   2  340.77   36.44
   2  16   2  338.69   20.13
  -2 -16   2  346.08   41.40
  -2  16  -2  399.23   37.46
  -2 -16   2  371.12   20.50
  -2  16  -2  357.66   19.38
  -2  16  -2  347.23   19.47
   2 -16  -2  371.71   20.08
  -4 -16  -2  360.82   51.89
  -4 -16  -2  330.88   18.34
  -4  16   2  312.13   18.13
  -4  16   2  295.19   46.98
   4 -16   2  303.19   17.65
   4 -16   2  313.28   34.67
   4  16  -2  327.06   21.15
   4  16  -2  346.58   42.62
   4 -16  -2  384.49   39.72
  -4  16  -2  272.10   16.99
  -4  16  -2  286.35   43.08
   4  16   2  283.27   19.73
  -4 -16   2  329.02   20.06
   4  16   2  290.81   43.29
  -4 -16   2  338.29   52.94
   4 -16  -2  316.74   19.33
   4  16   2  270.19   19.58
  -6  16   2  232.55   18.09
  -6  16   2  317.13   55.33
   6 -16   2  166.78   32.53
  -6  16   2  215.73   16.22
   6  16  -2  308.58   54.14
  -6 -16  -2  218.38   15.70
  -6 -16  -2  205.63   45.70
   6 -16   2  228.92   16.14
   6  16  -2  246.98   19.72
  -6  16  -2  222.26   14.65
  -6  16  -2  256.47   45.27
  -6 -16   2  168.69   44.46
   6  16   2  231.25   18.43
   6  16   2  162.22   36.61
   6 -16  -2  156.74   34.23
  -6 -16   2  217.20   17.36
   6 -16  -2  213.51   17.39
   8 -16   2  100.98   43.90
   8 -16   2   62.53   28.43
  -8  16   2   93.39   15.23
   8 -16   2  109.22   14.21
   8  16  -2  165.70   50.18
  -8 -16  -2  108.55   11.32
  -8 -16  -2  110.99   43.26
  -8  16   2  118.18   17.82
   8 -16  -2   75.01   31.63
   8 -16  -2   86.76   14.15
   8  16   2  114.51   40.04
  -8  16  -2  100.12   10.36
  -8 -16   2   92.50   52.15
  -8 -16   2  128.03   16.55
  -8  16  -2  103.68   10.08
   8 -16  -2   64.53   49.22
  10 -16   2   25.41    9.78
 -10  16   2   61.30   12.65
  10  16  -2  -23.61   53.73
 -10 -16  -2   32.53    8.91
  10 -16   2   -5.84   52.95
  10 -16  -2   81.12   62.86
 -10 -16   2  -19.63   62.41
 -10 -16   2   45.44   11.78
  10 -16  -2   53.33   42.88
  10 -16  -2   32.21   11.45
  10  16   2   70.06   44.87
   1  17  -2   27.54   20.30
  -1  17   2   42.53    7.69
  -1 -17  -2   93.37   27.24
  -1 -17  -2   47.32    8.09
   1  17  -2   39.93    8.76
   1 -17   2  103.99   28.39
   1 -17   2   64.59    9.43
  -1  17   2   80.77   25.45
  -1 -17   2   48.81    8.59
   1 -17  -2   66.69   22.84
  -1  17  -2   46.05    8.84
   1 -17  -2   44.32    8.60
  -1 -17   2   63.83   22.91
   1  17   2   66.33    9.70
   1  17   2   70.39   22.33
  -1  17  -2   48.49    8.44
  -1  17  -2   74.58   21.65
  -3 -17  -2   92.28   11.06
  -3  17   2   72.11    9.94
   3  17  -2   82.83   26.76
   3  17  -2   81.01   11.93
   3 -17   2   80.72   10.47
   3 -17   2   77.72   24.10
  -3  17   2   95.03   31.34
  -3 -17  -2  132.01   31.88
   3 -17  -2   76.50   11.12
  -3 -17   2   73.96   10.90
  -3  17  -2   82.14   10.78
   3 -17  -2   67.54   23.54
   3  17   2   94.63   12.40
  -3  17  -2   62.67   23.65
   3  17   2   95.81   26.40
  -3 -17   2  107.17   32.43
  -5  17   2   46.40   30.47
   5 -17   2   55.96    9.92
   5  17  -2   57.40   31.77
  -5 -17  -2   76.95   10.72
   5 -17   2   67.36   22.08
  -5 -17  -2   43.87   32.59
  -5  17   2   56.17    9.77
   5 -17  -2   34.49   22.49
   5  17   2   71.15   12.04
   5 -17  -2   66.66   11.10
  -5 -17   2   70.88   32.13
  -5  17  -2   65.64    9.55
   5  17   2   64.26   11.23
  -5  17  -2   51.85   27.87
  -5 -17   2   67.15   11.43
   5  17   2   56.02   26.53
   7  17  -2  -28.16   32.53
  -7  17   2   39.16   11.30
  -7  17   2   39.94    9.08
  -7 -17  -2   36.38   34.55
  -7 -17  -2   40.03    9.09
   7 -17   2   23.84    8.29
  -7  17  -2   45.38    8.20
  -7  17  -2    6.60   32.06
   7 -17  -2   30.12   26.44
  -7  17  -2   33.75    7.53
   7  17   2   14.08   28.51
  -7 -17   2   38.34   10.46
   7 -17  -2   36.25   10.02
  -7 -17   2   10.53   39.85
   7 -17  -2   74.50   48.79
   9 -17   2    3.10    7.57
  -9 -17  -2  -45.13   45.63
  -9  17   2    2.21    8.36
  -9 -17  -2    2.49    5.77
   9 -17   2   -4.62   31.79
   9  17  -2  -17.23   44.79
   9 -17   2   -6.96   46.73
  -9 -17  -2   12.47    7.43
   9  17   2    5.08   44.05
   9 -17  -2   16.46    9.62
  -9 -17   2  -38.27   47.74
   9 -17  -2  -51.67   47.07
   9 -17  -2  -15.64   37.34
  -9 -17   2    6.12    8.71
  -9  17  -2   -1.49    1.54
  -9  17  -2    5.07    4.25
   0  18   2   98.20   11.77
   0  18  -2  110.59   11.66
   0  18  -2   55.35   23.16
   0 -18  -2  107.94   29.48
   0 -18  -2  117.13   11.38
   0 -18   2  110.95   28.19
   0 -18   2  101.76   11.91
   0  18   2   90.90   27.51
   2  18  -2  220.46   39.56
  -2  18   2  268.72   43.17
  -2 -18  -2  272.67   17.10
  -2 -18  -2  250.89   43.70
   2  18  -2  218.45   17.57
  -2  18   2  243.63   16.94
   2 -18   2  249.80   16.77
   2 -18   2  199.13   36.75
   2 -18  -2  286.07   17.76
   2  18   2  263.48   17.69
  -2  18  -2  241.06   16.83
  -2 -18   2  296.92   18.61
   2  18   2  308.28   37.82
  -2  18  -2  264.44   17.11
   2 -18  -2  221.23   36.64
  -2  18  -2  318.75   37.57
  -2 -18   2  210.45   41.88
   4  18  -2  184.29   39.35
   4  18  -2  215.37   18.12
  -4 -18  -2  174.66   39.94
  -4  18   2  196.94   14.97
  -4 -18  -2  186.60   14.71
   4 -18   2  190.47   33.93
  -4  18   2  199.70   43.15
   4 -18   2  205.32   15.30
   4  18   2  182.64   16.92
   4  18   2  180.99   36.80
   4  18   2  182.53   16.83
  -4  18  -2  212.36   41.81
  -4 -18   2  232.19   47.55
   4 -18  -2  192.12   36.64
   4 -18  -2  213.11   16.52
  -4 -18   2  196.21   16.61
  -4  18  -2  211.83   14.85
   6  18  -2  110.42   40.28
   6 -18   2    2.23   37.49
  -6 -18  -2   91.48   42.51
  -6  18   2  124.48   42.50
  -6  18   2  114.18   13.82
  -6  18   2   98.52   13.58
   6 -18   2  102.01   13.09
  -6 -18  -2  130.03   13.93
  -6  18  -2  133.03   12.32
  -6 -18   2   76.24   39.60
   6 -18  -2  134.13   16.29
  -6  18  -2   89.54   38.62
   6  18   2  138.70   26.90
  -6 -18   2  132.27   15.63
   6  18   2  125.55   38.95
   6 -18  -2   93.46   31.85
  -8 -18  -2   84.37   11.24
   8  18  -2   62.62   46.31
  -8 -18  -2   94.49   12.38
   8 -18   2   41.68   38.41
  -8 -18  -2   68.18   45.66
   8 -18   2   48.75   29.66
  -8  18   2   76.34   13.66
   8 -18   2   74.64   12.63
   8  18   2   54.83   37.28
  -8  18  -2   90.83   10.18
  -8 -18   2   96.92   15.06
   8 -18  -2   60.30   52.94
  -8 -18   2   79.54   53.22
   8 -18  -2   64.08   12.96
  -8  18  -2  101.07   10.19
  10 -18   2   16.21    9.31
  10 -18  -2   17.48   11.03
   1  19  -2   -1.94   19.86
   1  19  -2   32.48    8.72
  -1  19   2   35.63    8.19
  -1 -19  -2   31.95    8.07
   1 -19   2   17.00   19.43
  -1 -19  -2    8.03   24.33
  -1  19   2   86.74   28.80
   1 -19   2   30.00    7.98
  -1  19  -2   70.21   25.05
  -1  19  -2   25.09    8.08
  -1  19  -2   28.86    7.96
   1  19   2   39.28   23.93
  -1 -19   2   34.53    8.54
   1 -19  -2   43.64    9.09
   1 -19  -2   37.54   21.36
   1  19   2   40.42    8.88
  -1 -19   2   56.00   26.43
   3 -19   2   30.44   22.36
  -3  19   2   -6.68   22.95
   3 -19   2   41.17    8.81
   3  19  -2   52.47   28.61
  -3 -19  -2   41.07    8.80
   3  19  -2   42.84   10.60
  -3 -19  -2   30.73   25.99
  -3  19   2   40.80    8.53
   3  19   2   43.60    9.83
  -3 -19   2   23.94   26.26
   3  19   2   41.97   26.18
  -3  19  -2   38.68    8.42
   3 -19  -2   29.88    8.50
  -3  19  -2   57.31   26.55
   3  19   2   80.61   12.46
   3 -19  -2   64.02   25.79
  -3 -19   2   42.21    9.59
  -3  19  -2   26.38    8.22
  -5  19   2  -16.47   30.94
  -5  19   2   28.94    8.25
   5 -19   2   22.81   25.48
   5  19  -2   56.11   32.78
  -5 -19  -2    8.40    6.78
   5 -19   2   17.20    7.27
  -5 -19  -2  -24.67   30.47
  -5 -19   2   -4.23   28.83
   5  19   2   42.96   10.83
  -5  19  -2   17.42    6.74
   5 -19  -2   19.83    8.43
   5 -19  -2  -19.37   20.70
  -5  19  -2   22.79   25.88
   5  19   2    8.96   27.51
  -5 -19   2   12.32    8.10
   5  19   2   29.65    9.97
  -7 -19  -2   23.85   41.31
  -7  19   2   20.49    8.99
   7  19  -2   63.87   42.11
   7 -19   2  -23.61   25.88
  -7 -19  -2   15.20    7.95
   7 -19   2    9.77    7.66
  -7 -19   2   14.16    9.12
  -7 -19   2  -11.25   40.34
  -7  19  -2   14.74    6.66
   7 -19  -2   20.24    9.41
   7 -19  -2   -8.72   28.32
   7  19   2   49.09   32.44
  -7  19  -2    0.76   39.18
  -7  19  -2   10.93    6.69
   9 -19   2   -6.28    6.35
   9  19  -2   40.75   58.47
   9 -19   2   -8.78   42.05
  -9  19   2    3.72    8.94
  -9 -19  -2    3.11    7.19
   9 -19   2   63.35   57.13
  -9 -19  -2   23.43   56.28
  -9 -19  -2    2.24    6.08
  -9  19  -2   -1.46    1.63
   9 -19  -2  -11.42   37.57
  -9 -19   2    4.32    8.85
   9  19   2   71.58   49.38
   9 -19  -2    5.42    8.75
   9 -19  -2   74.36   65.75
  -9 -19   2   26.59   57.42
   0 -20   2  123.96   14.08
   0  20   2  140.39   13.25
   0 -20   2  115.87   32.35
   0  20   2   81.56   27.25
   0 -20  -2  132.70   32.17
   0 -20  -2  141.30   13.75
   0  20  -2  118.10   31.53
   0  20  -2  131.22   13.74
  -2 -20  -2   65.26   31.96
   2  20  -2   32.23   27.51
   2 -20   2  119.32   31.89
   2  20  -2  115.82   15.11
  -2 -20  -2   93.28   12.00
  -2  20   2   89.95   33.63
  -2  20   2  105.90   13.27
   2 -20   2  107.44   13.03
  -2 -20   2   70.63   32.61
   2  20   2  113.21   14.36
   2  20   2  115.46   31.18
  -2 -20   2  118.19   14.48
   2 -20  -2   61.48   28.87
  -2  20  -2  124.09   14.34
  -2  20  -2  107.20   12.96
  -2  20  -2   89.10   27.76
   2 -20  -2   94.62   12.97
  -4 -20  -2   75.26   11.30
   4  20  -2   55.91   32.09
  -4  20   2   89.66   12.81
   4 -20   2   70.74   10.98
   4 -20   2   74.44   29.31
  -4 -20  -2   58.42   33.29
  -4  20   2   88.22   35.24
   4  20   2   90.34   32.73
  -4 -20   2   25.67   31.14
  -4  20  -2   78.88   11.37
   4  20   2   58.24   13.03
   4  20   2   71.25   12.65
  -4  20  -2   75.92   32.51
  -4 -20   2   55.39   11.37
   4 -20  -2  122.22   34.63
   4 -20  -2   68.08   11.57
   6 -20   2   63.05   11.00
  -6 -20  -2   50.24   42.38
  -6  20   2   44.61   39.58
  -6 -20  -2   64.53   10.95
   6  20  -2   15.91   34.30
   6 -20   2   45.41   27.49
  -6 -20   2   14.48   37.56
  -6 -20   2   58.72   11.97
   6 -20  -2   46.86   10.99
   6  20   2   52.34   34.26
  -6  20  -2   58.97   10.06
  -6  20  -2   78.21   40.35
   6 -20  -2   79.66   33.89
   8 -20   2   29.03   10.46
  -8 -20  -2   12.90    8.39
   8 -20   2    1.81   33.40
  -8 -20  -2   31.51    8.22
  -8  20   2   31.34   11.98
   8  20  -2    9.03   45.43
  -8 -20  -2   15.42   52.30
   8 -20  -2  -22.03   35.09
   8  20   2   86.22   48.21
  -8 -20   2    7.53   50.44
  -8  20  -2   45.88    8.57
  -8 -20   2   38.85   11.30
   8 -20  -2   51.52   58.52
   8 -20  -2   13.83    9.90
  -8  20  -2   17.43    5.99
   1  21  -2   11.30    6.98
  -1  21   2   -3.05   23.39
   1 -21   2    6.24    6.77
  -1  21   2   13.90    7.01
  -1 -21  -2   11.20    7.24
   1  21  -2   20.42   24.83
  -1 -21  -2   12.65   23.59
   1 -21   2  -21.57   20.66
   1  21   2   28.25   23.95
   1 -21  -2    6.75    6.65
  -1 -21   2    8.28    7.17
  -1  21  -2    7.96    6.51
  -1  21  -2   27.76   22.43
  -1 -21   2  -12.20   22.57
   1 -21  -2   19.12   23.90
  -1  21  -2    6.33    7.31
   3  21  -2   24.82   28.77
  -3 -21  -2   26.44    8.68
  -3  21   2  -15.07   26.06
   3 -21   2   11.39    7.51
  -3  21   2   18.18    7.76
   3  21  -2   14.59    8.56
   3 -21   2   23.99   24.52
  -3 -21  -2   -6.36   35.60
   3 -21  -2    9.48    7.36
  -3 -21   2   31.64    9.56
  -3  21  -2   19.03    7.72
   3  21   2    0.84   25.32
  -3  21  -2   26.22    8.45
  -3  21  -2   15.67   22.86
   3  21   2   13.28   10.67
  -3 -21   2   28.51   31.58
   3 -21  -2   12.63   24.80
  -5 -21  -2    5.50    6.88
   5  21  -2   51.64   33.60
   5 -21   2   10.10    7.77
  -5 -21  -2   -0.57   33.02
  -5  21   2   -9.58   34.15
   5 -21  -2   14.09   27.84
  -5 -21   2   27.98   40.29
  -5  21  -2    7.84   34.34
  -5 -21   2    3.92    8.39
  -5  21  -2    2.19    6.69
   5  21   2    6.49   32.36
   5 -21  -2    8.87    7.93
  -7 -21  -2   10.86    7.94
   7  21  -2   15.50   43.10
  -7  21   2   15.21    9.68
   7 -21   2    9.79    8.17
  -7 -21  -2   51.32   46.11
   7 -21   2   11.87   32.28
  -7  21  -2    4.10    6.25
  -7 -21   2    4.58    8.65
  -7 -21   2   24.85   48.20
  -7  21  -2    8.37    7.38
  -7  21  -2   11.24   39.27
   7 -21  -2   18.23    9.33
   7  21   2   76.07   41.29
   9 -21  -2   -4.70    7.62
   0 -22   2   83.78   32.16
   0  22   2   52.20   29.85
   0 -22  -2   61.06   10.86
   0  22  -2   58.04   27.83
   0 -22   2   80.55   11.84
   0 -22  -2  102.03   36.02
   0  22  -2   71.89   12.35
  -2  22   2   91.04   38.64
   2  22  -2  150.21   16.14
   2 -22   2   39.95   29.76
  -2 -22  -2  121.31   14.11
   2  22  -2   69.80   34.11
  -2 -22  -2  138.91   39.95
   2 -22   2  134.21   15.34
  -2 -22   2  146.82   16.27
  -2 -22   2  150.58   41.82
   2 -22  -2  102.24   14.37
  -2  22  -2  146.03   34.60
   2  22   2   78.67   29.77
  -2  22  -2  109.83   14.58
  -2  22  -2  135.79   14.19
   2 -22  -2   88.42   33.66
   4  22  -2   61.54   34.32
  -4 -22  -2   37.69   35.87
  -4 -22  -2   81.85   12.37
  -4  22   2   16.16   35.01
   4 -22   2   71.11   12.11
   4 -22   2   28.18   32.18
   4 -22  -2   24.44   27.09
  -4  22  -2   75.81   11.97
  -4  22  -2  136.03   40.09
  -4 -22   2   79.76   13.23
   4 -22  -2   77.75   13.61
  -4 -22   2   53.30   38.63
   4  22   2   73.29   35.22
  -4  22  -2   79.67   12.21
   6 -22   2   26.56    9.35
  -6  22   2   55.79   47.09
  -6 -22  -2  -45.17   36.98
   6  22  -2   57.74   41.34
   6 -22   2   22.95   35.07
  -6 -22  -2   17.53    8.72
   6  22   2    4.66   37.84
   6 -22  -2   21.75   35.23
  -6 -22   2   17.92   10.41
  -6  22  -2   22.92    8.99
  -6 -22   2    4.24   45.65
  -6  22  -2   60.81   43.24
   6 -22  -2   24.79   10.12
   8 -22   2   18.65    9.23
  -8  22   2   33.45   12.40
   8  22  -2   74.11   57.45
  -8 -22  -2   11.57    8.99
  -8 -22  -2   21.49   66.03
   8  22   2   86.97   50.68
   8 -22  -2  -17.00   46.49
   8 -22  -2   28.17   11.55
  -8 -22   2   45.23   13.00
   8 -22  -2   22.15   72.36
  -8  22  -2   32.97    8.29
  -8 -22   2  -44.34   56.08
   1  23  -2   37.52   10.19
  -1 -23  -2   58.93   33.05
   1 -23   2   31.23   28.37
   1 -23   2   42.91   10.01
  -1 -23  -2   33.69    9.31
  -1  23   2   25.91   31.52
   1  23  -2   29.50   27.63
   1  23   2   30.65   27.57
  -1 -23   2   18.43   31.49
   1 -23  -2   14.23    8.36
   1 -23  -2   14.31   28.59
  -1  23  -2   41.37    9.31
  -1  23  -2   39.62   30.28
  -1 -23   2    8.33    7.87
  -3 -23  -2   12.77   35.30
   3 -23   2   14.13    8.47
  -3  23   2   30.91   35.32
   3  23  -2  -26.49   30.95
  -3 -23  -2   17.33    8.73
   3 -23   2    6.97   25.51
  -3 -23   2   23.74   37.34
  -3  23  -2   -1.11   27.21
   3 -23  -2   16.07    8.34
   3 -23  -2  -28.11   28.36
  -3 -23   2   32.69   10.23
  -3  23  -2   14.28    8.56
   3  23   2    5.98   27.78
  -3  23  -2   26.02    8.51
  -5 -23  -2   14.80    8.67
  -5 -23  -2   18.40   42.43
   5  23  -2   43.39   45.40
   5 -23   2   32.87   30.31
   5 -23   2    7.79    7.60
  -5  23   2   40.11   49.31
  -5  23  -2   10.84    8.18
  -5  23  -2    7.29    6.86
   5 -23  -2   11.98    8.79
  -5  23  -2   13.07   35.83
   5 -23  -2  -42.58   28.34
  -5 -23   2  -58.98   41.28
  -5 -23   2   17.32    9.95
   5  23   2  103.99   45.30
   7  23  -2   14.24   47.90
   7 -23   2   -1.70    8.07
   7 -23   2  -11.05   38.66
  -7  23   2   14.17   56.16
  -7 -23  -2   10.39    8.29
  -7 -23  -2   13.98   56.59
  -7  23   2    4.75    8.56
  -7  23  -2   21.90    8.68
  -7  23  -2  -60.80   49.24
   7  23   2  -14.98   48.28
   7 -23  -2   13.27    9.85
   7 -23  -2  -23.45   37.63
  -7 -23   2   11.64   10.15
  -7 -23   2   81.75   59.47
   0  24  -2   45.72   11.22
   0  24  -2   57.23   30.56
   0 -24   2   56.05   11.13
   0  24   2   98.50   36.32
   0 -24  -2   54.21   11.28
   0 -24  -2   75.12   36.26
   0 -24   2    4.83   30.44
  -2  24   2   30.87   36.85
   2  24  -2   95.13   37.77
  -2 -24  -2   36.72   38.02
   2 -24   2   77.03   12.35
   2 -24   2   74.74   37.66
  -2 -24  -2   70.22   12.21
   2  24   2   72.08   34.47
  -2  24  -2  102.63   14.41
   2 -24  -2   71.54   12.68
  -2  24  -2   59.94   33.46
   2 -24  -2   86.73   35.90
  -2 -24   2   50.03   11.62
  -2 -24   2  -62.24   37.85
  -2  24  -2   76.32   13.31
  -4  24   2   33.98   41.35
  -4 -24  -2   -3.51   40.55
   4  24  -2   -3.98   38.05
  -4 -24  -2   37.26    9.84
   4 -24   2    7.46   31.19
   4 -24   2   53.49   11.25
  -4  24  -2   72.81   12.96
   4 -24  -2   49.37   12.30
   4  24   2   57.03   37.29
  -4 -24   2   46.50   12.12
  -4 -24   2   36.72   41.66
   4 -24  -2    9.66   37.28
  -4  24  -2   72.17   45.29
  -4  24  -2   53.90   11.64
   6 -24   2   27.46   10.98
   6 -24   2   -4.11   35.73
  -6 -24  -2   31.10   10.33
  -6  24   2   43.27   53.17
  -6 -24  -2   39.57   54.67
   6  24  -2   12.47   49.88
  -6  24  -2   37.59   10.53
   6 -24  -2   16.13    9.82
  -6  24  -2   45.55    9.80
  -6 -24   2  -69.04   49.38
   6  24   2   29.90   43.11
  -6 -24   2   34.14   11.80
  -6  24  -2   -5.71   45.44
   1  25  -2    2.81   33.73
  -1  25   2  -15.36   31.21
   1 -25   2    3.75    7.91
  -1 -25  -2   23.40   35.44
   1 -25   2  -14.35   35.35
  -1 -25  -2    5.25    7.79
  -1 -25   2    8.40    8.05
   1 -25  -2    7.71    8.62
   1 -25  -2   -7.59   34.15
  -1  25  -2    7.16   32.02
   1  25   2    4.19   32.61
  -1 -25   2   -0.89   34.89
  -3 -25  -2  -47.31   37.40
   3  25  -2   -8.80   36.36
   3 -25   2   30.93   41.51
  -3  25   2    1.32   39.95
   3 -25   2   10.90    8.21
  -3 -25  -2   13.75    8.71
  -3 -25   2   56.31   45.27
  -3  25  -2   -8.68   34.47
  -3  25  -2   29.23    9.34
  -3  25  -2   12.52    8.41
   3  25   2    8.30   36.98
   3 -25  -2   -3.43    7.76
   3 -25  -2    8.42   36.96
  -3 -25   2   14.19    9.30
   5 -25   2    4.98    8.19
  -5 -25  -2    0.60   48.90
  -5  25   2    4.68   50.60
   5 -25   2    3.03   35.85
  -5 -25  -2    5.30    8.71
   5  25  -2  -37.42   41.94
   5 -25  -2   10.26   44.93
  -5 -25   2  -28.95   55.74
  -5 -25   2    3.51    9.59
  -5  25  -2  -13.43   39.52
  -5  25  -2    9.30    8.03
  -5  25  -2    1.86    7.51
   5 -25  -2   -0.04    7.95
   5  25   2  -27.14   41.16
  -7 -25  -2   -3.00    7.98
   7 -25   2   -2.64    8.49
   7 -25  -2    8.19   10.08
   0  26   2   51.36   38.04
   0 -26  -2   47.40   36.30
   0 -26   2   33.38   10.13
   0  26  -2   26.28   39.13
   0 -26   2   47.61   41.63
   0 -26  -2   20.77    9.79
  -2 -26  -2  -29.12   40.94
   2 -26   2   26.67    9.83
   2  26  -2   25.75   41.10
  -2  26   2    1.66   44.44
  -2 -26  -2   17.00    9.71
  -2  26  -2   51.21   37.14
   2 -26  -2   38.41   36.73
   2  26   2   56.03   38.41
  -2 -26   2   28.01   10.63
  -2 -26   2   -8.75   41.21
   2 -26  -2   23.01   10.20
   4 -26   2   24.73    9.71
  -4  26   2   52.54   51.71
   4 -26   2   20.62   41.74
   4  26  -2   79.00   52.98
  -4 -26  -2   55.18   52.16
  -4 -26  -2   31.83   10.37
  -4  26  -2    9.98   40.89
  -4  26  -2   27.72   10.00
   4 -26  -2   16.36   10.21
  -4  26  -2   23.38   15.63
   4  26   2   95.55   46.05
   4 -26  -2   17.03   40.21
  -4 -26   2   25.23   11.03
  -4 -26   2   11.09   48.50
  -6  26   2  -54.02   61.54
  -6 -26  -2   48.79   71.01
   6  26  -2   22.59   64.84
   6 -26   2    6.10    9.26
   6 -26   2   29.90   51.87
  -6 -26  -2    1.82    8.61
  -6  26  -2   40.99    8.97
   6 -26  -2   18.32   10.87
   6  26   2   43.86   52.63
  -6  26  -2  -22.45   53.19
  -6  26  -2   11.19    7.57
  -6 -26   2   15.14   11.53
   6 -26  -2   96.72   56.41
  -6 -26   2  -98.98   61.98
   1  27  -2   24.31   38.68
  -1 -27  -2   13.02    9.18
  -1  27   2    6.58   40.37
  -1 -27  -2   14.89   41.51
   1 -27   2    4.20    8.16
  -1 -27   2    3.05    8.53
  -1 -27   2   30.55   41.40
   1  27   2   43.86   39.10
  -1  27  -2   -8.21   36.75
   1 -27  -2   24.59   40.41
   1 -27  -2    0.05    8.02
  -3  27   2  -50.00   53.18
  -3 -27  -2   19.26    9.83
  -3 -27  -2   45.71   48.67
   3 -27   2  -42.65   36.14
   3 -27   2   17.01    9.27
   3  27  -2    4.75   43.10
  -3 -27   2   12.44   10.35
   3 -27  -2   18.93   47.15
  -3 -27   2  -31.83   44.47
   3  27   2   -3.53   38.91
  -3  27  -2   76.69   45.20
   3 -27  -2   12.43    9.56
  -5 -27  -2    0.66    8.04
  -5 -27  -2   92.86   73.95
  -5  27   2   15.84   60.14
   5 -27   2   13.00    9.74
   5  27  -2  -23.19   60.31
   5 -27   2   -2.86   40.94
  -5  27  -2   -1.69   52.95
  -5 -27   2    0.77    9.13
   5  27   2   33.75   48.14
   5 -27  -2  -10.73   47.31
   5 -27  -2   -7.98    8.39
  -5 -27   2  -32.35   65.27
   0  28   2   25.72   40.85
   0 -28   2   70.60   57.32
   0 -28  -2  -10.65   44.27
   0 -28  -2   12.12    8.89
   0  28  -2   -6.56   42.95
   0 -28   2    5.93    8.98
  -2 -28  -2  -67.87   47.34
   2 -28   2   -8.96   46.20
   2  28  -2   -3.81   47.57
  -2  28   2  -13.44   47.66
   2 -28   2    6.98    9.11
  -2 -28  -2    7.14    9.55
   2  28   2   44.42   43.42
   2 -28  -2  -72.03   48.75
  -2  28  -2   -0.42   42.81
   2 -28  -2    7.63    9.88
  -2 -28   2   25.70   10.71
  -4  28   2  -13.86   59.09
   4 -28   2    5.35    8.59
  -4 -28  -2   19.11   10.47
   4 -28   2   -8.05   40.72
   4  28  -2   -3.27   51.64
  -4 -28  -2   46.10   61.30
  -4 -28   2  -11.39    8.07
   4 -28  -2   -2.21    8.92
   4  28   2   23.23   49.51
  -4  28  -2   74.48   53.06
  -4 -28   2   28.23   62.40
  -1  29   2   37.12   59.11
   1 -29   2   -3.08    8.99
   1 -29   2   -1.97   47.78
   1  29  -2   56.12   50.47
  -1 -29  -2  -40.99   57.12
  -1 -29  -2    2.67    8.80
   1  29   2   34.02   46.47
  -1 -29   2   10.36   10.29
   1 -29  -2   -6.15    8.36
   1 -29  -2    2.47   53.68
  -1 -29   2  -10.14   49.63
  -1  29  -2  -40.06   40.99
   3 -29   2  -11.91    7.09
   3 -29   2  -26.94   45.22
  -3  29   2   11.10   59.34
   3  29  -2   65.73   52.17
  -3 -29  -2   40.33   67.37
  -3 -29  -2   -0.74    9.24
  -3 -29   2   19.29   10.98
   3 -29  -2   -0.74    9.01
   3  29   2  -42.56   46.50
  -3  29  -2   30.29   54.09
   0 -30  -2  -88.12   60.87
   0 -30   2   12.66   58.72
   0  30   2  -13.44   51.13
   0 -30  -2    1.02    9.84
   0  30  -2   11.48   50.91
   0 -30   2    9.38   10.07
   2 -30   2    3.80    8.56
  -2 -30  -2   -7.47    9.00
   2 -30  -2   -2.27    9.03
   0   0   3   17.84    3.26
   0   0   3   18.58    6.98
   0   0  -3   18.79    3.30
   0   0  -3   18.79    6.89
   2   0  -3  599.67   24.82
  -2   0   3  618.98   23.50
  -2   0   3  565.05   38.48
  -2   0   3  567.66   24.78
   2   0  -3  541.72   38.04
  -4   0   3  312.27   16.49
   4   0   3  286.61   18.86
  -4   0   3  300.39   15.03
  -4   0   3  308.38   33.33
   4   0  -3  241.18   15.23
   4   0  -3  320.48   15.10
   4   0  -3  311.82   33.42
   4   0   3  295.55   11.75
  -4   0  -3  282.15   20.13
   4   0   3  312.62   12.11
  -6   0  -3   45.45   15.80
   6   0  -3   47.90   21.15
   6   0   3   51.73    5.77
   6   0  -3   37.39    7.35
  -6   0   3   41.64   21.79
   6   0   3   37.26   14.63
   6   0   3   45.05    5.08
  -6   0   3   40.46    7.06
  -6   0   3   49.81    9.32
   6   0  -3   41.91    7.40
  -8   0   3   50.63   33.06
   8   0   3   56.04    6.21
   8   0  -3  -31.02   23.50
  -8   0   3   53.32    8.67
   8   0   3   22.76   19.72
   8   0   3   46.97    7.26
  -8   0   3   52.82    9.68
   8   0  -3   57.41    9.41
  10   0   3    9.68   30.06
 -10   0   3   16.05    7.99
  10   0   3   28.54    7.09
 -10   0   3   59.75   43.25
  10   0  -3   47.76   10.81
  10   0   3   20.83    5.39
  10   0  -3  -18.10   37.34
  12   0   3   45.94   48.84
 -12   0   3    1.47    8.02
  12   0  -3  -19.81   58.30
  -1   1   3 1836.28   82.50
  -1  -1  -3 1908.42   70.28
   1   1  -3 2039.26   83.02
   1  -1   3 1846.76   70.25
  -1  -1  -3 1888.19   72.41
  -1  -1   3 1946.20   82.77
   1  -1  -3 1834.72   82.43
  -3  -1  -3 4297.79  155.54
   3  -1   3 4275.02  151.42
  -3   1   3 4172.11  177.52
   3  -1   3 4133.49  151.69
   3   1  -3 4372.63  177.67
   3  -1  -3 4450.75  179.28
   3   1   3 4569.91  154.04
  -3  -1   3 4246.83  177.87
   5   1  -3  693.71   53.04
  -5  -1  -3  554.88   35.88
   5  -1   3  600.98   22.76
  -5   1   3  603.81   51.32
  -5   1   3  556.09   25.73
   5   1  -3  609.32   27.53
  -5   1   3  584.59   27.37
   5  -1   3  599.16   34.71
   5  -1  -3  552.41   26.69
   5   1   3  596.96   34.39
  -5  -1   3  627.95   51.99
   5  -1  -3  579.01   25.77
   5  -1  -3  579.83   50.57
  -5  -1   3  594.66   27.52
   5   1   3  564.84   22.77
  -5  -1   3  553.32   25.61
   5   1   3  588.14   22.84
   7  -1   3  681.41   28.06
  -7  -1  -3  614.91   48.30
   7   1  -3  678.67   32.57
   7   1  -3  573.83   58.94
  -7   1   3  732.01   33.04
   7  -1   3  578.50   43.11
  -7   1   3  699.02   30.92
  -7   1   3  622.13   61.17
   7  -1   3  691.84   26.37
   7  -1   3  640.35   46.48
   7  -1  -3  669.46   31.99
   7   1   3  708.44   28.19
   7  -1  -3  579.28   58.69
   7   1   3  676.06   27.39
  -7  -1   3  667.73   30.84
   7  -1  -3  722.00   31.48
  -7  -1   3  550.06   58.77
  -7  -1   3  755.18   33.32
   7   1   3  648.58   46.20
   9  -1   3  325.21   45.59
   9   1  -3  279.01   20.01
   9  -1   3  244.60   15.96
  -9   1   3  315.57   19.17
  -9   1   3  284.93   59.90
  -9  -1  -3  242.03   41.94
   9   1  -3  260.53   54.42
  -9   1   3  264.70   19.75
   9  -1   3  288.98   14.20
   9  -1  -3  251.93   54.67
   9   1   3  344.77   45.35
   9  -1  -3  284.26   19.89
  -9  -1   3  284.10   20.21
  -9  -1   3  279.30   18.61
  -9  -1   3  218.53   55.20
   9   1   3  275.12   15.06
 -11   1   3  114.39   15.35
  11   1  -3   78.48   53.99
  11  -1   3   80.59   33.59
  11  -1   3  166.80   43.66
  11  -1   3  141.50   13.06
 -11  -1   3  -16.72   51.43
  11   1   3  154.61   11.46
  11  -1  -3  191.31   67.39
  11   1   3  180.55   47.22
 -11  -1   3  151.40   16.90
  11   1   3   97.57   38.91
   0  -2  -3    2.11    4.77
   0  -2  -3    9.73    5.10
   0  -2   3    7.24    5.42
   0   2   3    2.51    1.95
   0  -2   3    6.04    2.12
   0   2   3    7.75    1.81
   0   2  -3    1.72    4.70
   0   2  -3    7.08    2.26
  -2  -2  -3   91.05    8.22
   2   2  -3   70.52    6.39
   2   2  -3   93.32   17.81
  -2   2   3   74.92    5.77
   2  -2   3   69.26    3.98
  -2   2   3   87.16    6.91
   2  -2  -3   80.53   17.16
   2   2   3   82.52    7.29
   2  -2  -3   85.04    5.88
  -2  -2   3   46.97   14.63
  -2  -2   3   71.67    6.42
   2  -2  -3   79.54    6.52
   4  -2   3  229.13    9.22
  -4   2   3  244.92   35.60
   4  -2   3  242.07   16.15
  -4   2   3  222.24   13.63
   4   2  -3  234.85   34.28
  -4   2   3  226.66   12.49
   4   2  -3  192.62   12.98
   4  -2   3  210.77   17.03
  -4  -2  -3  239.44   19.60
  -4  -2   3  254.94   31.91
   4   2   3  232.86   10.69
   4   2   3  240.20   10.26
   4   2   3  224.48    9.63
  -4  -2   3  206.91   13.31
   4   2   3  163.96   16.18
  -4  -2   3  231.14   12.37
   4  -2  -3  251.71   12.91
   4  -2  -3  187.86   12.65
   4  -2  -3  252.41   30.34
  -6   2   3   33.76   22.71
   6  -2   3   35.65   14.06
  -6   2   3   37.18    7.44
   6   2  -3   26.66   20.03
   6  -2   3   30.40    4.77
   6  -2   3   35.16   12.60
   6   2  -3   30.27    6.49
  -6   2   3   33.13    6.64
  -6  -2  -3   26.80   13.30
   6   2   3   31.82    4.89
  -6  -2   3   41.92   25.46
   6  -2  -3   49.23   24.87
   6   2   3   34.36    5.10
   6  -2  -3   26.96    6.73
  -6  -2   3   28.53    6.11
   6  -2  -3   33.08    6.61
  -6  -2   3   33.56    6.92
   6   2   3   32.18   14.59
  -8   2   3   36.65    8.38
   8   2  -3   17.15   26.31
  -8  -2  -3    9.42   21.39
  -8   2   3   -1.87   25.79
   8  -2   3   26.42   17.56
   8  -2   3   35.24    6.44
   8   2  -3   27.75    8.25
  -8   2   3   19.09    7.06
   8  -2   3   37.84   22.06
   8   2   3   30.68    6.02
  -8  -2   3   66.11   10.38
   8   2   3   12.75   18.28
  -8  -2   3   17.24   30.82
   8  -2  -3  -41.61   24.22
   8  -2  -3   37.56    8.48
   8  -2  -3   31.82    7.73
  -8  -2   3   22.17    7.42
  10  -2   3   31.94    7.62
  10  -2   3  -37.29   28.72
 -10   2   3   22.26    8.64
  10   2  -3   -0.78   35.98
 -10  -2  -3   28.49   31.50
  10  -2  -3   41.24   10.09
  10   2   3   25.83    6.55
  10   2   3   47.40   33.40
 -10  -2   3   17.66   41.36
 -10  -2   3   31.98    8.98
  10  -2  -3   23.65   45.16
 -12   2   3    8.98    9.20
  12   2  -3  -17.31   59.79
  12  -2   3  -26.87   48.58
  12   2   3    6.91    5.63
  12   2   3   21.25   55.10
 -12  -2   3  -10.22   59.71
  12  -2  -3   40.31   56.00
 -12  -2   3    8.68    9.49
  12  -2  -3  107.37   72.67
  -1  -3  -3  396.77   20.33
   1  -3   3  353.16   19.30
   1  -3   3  351.58   14.57
   1   3  -3  327.03   24.80
  -1   3   3  351.74   16.55
  -1   3   3  351.85   15.16
   1   3  -3  350.62   16.29
   1   3   3  389.83   21.04
  -1   3  -3  360.88   14.68
  -1   3  -3  383.38   19.08
   1   3   3  378.09   13.96
  -1  -3   3  338.85   26.13
   1  -3  -3  337.45   14.86
   1  -3  -3  386.04   28.70
  -1  -3   3  364.94   16.34
  -3  -3  -3 1952.15   80.21
   3   3  -3 2158.58   97.86
   3  -3   3 2017.88   77.29
   3   3  -3 2004.61   75.32
   3  -3   3 2056.60   74.98
   3   3   3 2016.09   79.22
   3  -3  -3 2011.56   99.56
  -3  -3   3 1944.26   97.30
   3  -3  -3 2041.67   94.73
   5  -3   3  274.98   11.84
  -5   3   3  262.48   14.63
  -5  -3  -3  293.56   25.82
   5  -3   3  261.85   20.86
   5  -3   3  257.45   23.09
   5   3  -3  274.41   40.43
   5   3  -3  264.60   16.05
  -5   3   3  280.77   16.27
   5   3   3  260.11   12.69
  -5  -3   3  229.82   15.33
  -5  -3   3  272.38   41.41
   5  -3  -3  245.26   14.41
   5  -3  -3  347.73   47.24
   5   3   3  251.74   22.99
   5  -3  -3  270.63   15.53
  -5  -3   3  238.45   14.19
   7  -3   3  661.02   48.80
  -7   3   3  726.83   32.71
  -7   3   3  739.63   34.62
   7   3  -3  850.13   68.93
  -7  -3  -3  667.20   50.16
   7  -3   3  734.36   46.54
   7   3  -3  709.50   34.64
   7  -3   3  779.60   30.39
   7  -3  -3  734.32   33.21
  -7  -3   3  773.04   67.88
   7   3   3  786.44   50.69
  -7  -3   3  748.68   34.92
   7  -3  -3  758.45   34.18
  -7  -3   3  670.70   32.30
   7  -3  -3  716.34   65.54
   7   3   3  703.65   30.10
   9   3  -3  196.21   17.62
  -9   3   3  231.62   16.55
   9  -3   3  202.22   14.06
  -9  -3  -3  203.64   42.08
   9  -3   3  221.19   39.75
   9   3  -3  254.03   52.00
  -9   3   3  223.57   17.73
   9   3   3  209.17   13.70
   9   3   3  247.79   41.26
  -9  -3   3  215.98   51.84
   9  -3  -3  199.12   49.80
   9  -3  -3  209.49   16.44
  -9  -3   3  244.46   17.12
   9  -3  -3  185.41   44.61
   9  -3  -3  210.93   17.11
  -9  -3   3  195.74   17.37
  11  -3   3   88.10   32.86
  11   3  -3  159.72   59.71
  11  -3   3  130.90   45.64
 -11  -3  -3   94.64   47.80
 -11   3   3  125.56   17.46
  11  -3   3  118.36   14.01
 -11  -3   3  -10.90   45.66
  11   3   3  127.87   12.02
  11   3   3  134.87   48.29
  11  -3  -3  112.05   61.49
  11  -3  -3  120.69   53.10
 -11  -3   3  128.60   17.15
   0   4  -3   27.04    8.02
   0  -4  -3    7.64    2.02
   0  -4   3   13.61    2.86
   0   4  -3    9.39    2.54
   0  -4   3    3.36    5.36
   0   4   3    9.49    5.72
   0  -4  -3   -0.71    4.39
   0   4   3    8.83    2.22
   2   4  -3  103.84   19.34
   2  -4   3   90.27    4.38
  -2   4   3   87.98    7.21
  -2   4   3   79.33    6.17
  -2  -4  -3   88.01   11.06
   2   4  -3   75.99    6.83
   2  -4   3   95.26    9.39
  -2  -4   3  131.67   21.28
   2   4   3   87.02    4.76
  -2   4  -3   91.55    8.71
   2   4   3   98.08   10.61
  -2  -4   3   78.83    6.93
   2  -4  -3  109.05   20.48
   2  -4  -3   62.82   14.70
   2  -4  -3   95.07    6.45
   4  -4   3   31.06    3.45
   4   4  -3   29.28    6.12
  -4   4   3   25.23    4.98
  -4   4   3   28.37    5.69
   4  -4   3   43.17   10.23
   4  -4   3   29.44    7.59
   4   4  -3   51.03   18.85
  -4  -4  -3   19.86    9.87
   4  -4  -3   23.61   14.70
   4   4   3   43.19   10.74
   4  -4  -3   27.56    5.39
  -4  -4   3   26.94    5.04
   4   4   3   43.10    5.43
  -4  -4   3   33.53   16.15
   4  -4  -3   38.24   15.45
   4   4   3   37.34    4.55
  -4  -4   3   19.38    5.12
  -6  -4  -3   39.85   15.85
   6   4  -3    0.24   19.92
  -6   4   3   20.62    5.73
   6  -4   3   22.96   13.06
   6  -4   3   23.61    4.45
  -6   4   3   18.47    6.52
   6  -4   3   24.19   11.33
   6   4  -3   18.52    5.83
   6  -4  -3   29.23    6.63
   6   4   3   20.83    4.87
  -6  -4   3   19.76    6.13
   6  -4  -3    2.41   19.31
  -6  -4   3   31.67    7.04
   6  -4  -3    5.84   16.99
   6  -4  -3   18.62    5.67
  -6  -4   3   69.19   27.08
   6   4   3   10.63   13.03
  -8   4   3   23.37    7.70
   8  -4   3   28.86   17.19
   8  -4   3   52.22    7.66
   8   4  -3   54.64   10.90
   8  -4   3   33.00   20.89
  -8   4   3   33.63    7.91
   8   4  -3   58.11   31.64
  -8  -4  -3   44.52   22.78
   8  -4  -3   36.22    8.10
  -8  -4   3   60.22   10.10
   8  -4  -3   46.46   27.39
   8  -4  -3   27.74   26.85
   8   4   3   52.76    8.07
   8  -4  -3   49.63   10.35
  -8  -4   3   42.29   10.31
   8   4   3   25.66   21.43
  -8  -4   3   34.35   29.27
  10   4  -3   64.44   46.95
 -10  -4  -3    1.11   31.43
  10  -4   3   31.63    7.76
  10  -4   3  -17.14   27.99
  10  -4   3  -24.88   33.42
 -10   4   3   22.92    9.84
  10   4   3   17.57    6.61
  10  -4  -3   15.29    7.67
  10  -4  -3  -13.30   32.86
  10   4   3  -12.89   30.69
 -10  -4   3   17.92    9.14
 -10  -4   3  -20.70   37.16
  10  -4  -3   31.94   43.66
  12  -4   3    8.35    6.99
  12  -4   3  -24.56   48.44
 -12   4   3    7.79    9.19
  12   4  -3  -10.80   62.21
  12   4   3   97.11   55.37
 -12  -4   3  -18.65   61.71
  12  -4  -3  -43.35   53.90
 -12  -4   3    4.92    8.85
  12  -4  -3  -24.95   69.38
  12   4   3    4.43    5.84
   1   5  -3 1765.60   65.61
  -1  -5  -3 1715.39   73.33
  -1   5   3 1855.29   80.99
   1  -5   3 1813.47   63.60
   1   5  -3 1736.30   78.91
   1  -5   3 1799.86   72.85
   1  -5  -3 1808.42   64.34
   1   5   3 1832.29   63.38
   1   5   3 1779.75   73.86
   1  -5  -3 1834.63   79.06
  -1   5  -3 1799.13   63.81
  -1   5  -3 1788.82   72.10
  -1  -5   3 1613.29   79.04
   3   5  -3 1863.46   69.18
   3   5  -3 1756.59   89.14
  -3  -5  -3 1793.10   77.59
   3  -5   3 1770.54   72.35
  -3   5  -3 1763.47   73.43
   3   5   3 1830.78   76.61
   3  -5  -3 1809.96   93.91
   3  -5  -3 1895.22   67.56
  -3  -5   3 1875.07   69.04
   3  -5  -3 1974.60   90.25
  -3  -5   3 1731.50   91.57
  -5  -5  -3  752.85   47.41
   5  -5   3  799.05   45.33
   5  -5   3  722.93   39.64
   5   5  -3  759.55   34.31
  -5   5   3  778.29   34.21
   5   5  -3  882.35   61.13
   5  -5   3  770.75   29.36
  -5   5   3  769.00   32.46
   5  -5  -3  811.14   61.99
  -5  -5   3  716.90   32.03
   5  -5  -3  635.49   52.63
  -5  -5   3  807.72   61.02
   5  -5  -3  781.48   32.79
   5   5   3  807.81   45.11
  -5  -5   3  774.74   34.23
   5   5   3  757.42   31.13
  -7   5   3  591.22   29.44
   7   5  -3  584.79   58.45
   7  -5   3  467.44   38.21
  -7  -5  -3  603.60   49.36
  -7   5   3  628.10   28.03
   7  -5   3  509.97   44.75
   7  -5   3  600.17   25.17
   7   5  -3  582.89   29.95
   7  -5  -3  577.65   28.13
   7   5   3  519.32   25.37
  -7  -5   3  624.89   29.89
   7  -5  -3  621.60   55.53
   7   5   3  532.62   43.54
  -7  -5   3  602.51   63.86
   7  -5  -3  588.98   61.84
  -7  -5   3  581.77   27.85
   9  -5   3  130.76   34.23
  -9   5   3  153.70   15.83
  -9   5   3  163.97   14.50
   9  -5   3  166.58   12.81
  -9  -5  -3  185.56   39.57
   9   5  -3  182.35   17.33
   9   5  -3  194.69   55.71
  -9  -5   3  165.24   16.31
  -9  -5   3  244.09   57.08
  -9  -5   3  214.83   15.67
   9  -5  -3  216.87   46.89
   9  -5  -3  101.44   47.38
   9   5   3  188.92   13.47
   9  -5  -3  170.38   15.11
   9   5   3   99.88   35.17
  11   5  -3  148.30   65.94
 -11  -5  -3   36.30   44.04
  11  -5   3   86.85   45.63
  11  -5   3   80.10   34.23
 -11   5   3  123.74   17.26
  11  -5   3  112.33   13.42
  11  -5  -3  156.80   53.82
 -11  -5   3  -32.86   46.55
 -11  -5   3  106.00   15.37
  11  -5  -3   81.82   62.22
  11   5   3  115.80   12.86
  11   5   3  104.67   48.66
  11  -5  -3  110.47   15.73
   0   6   3  367.50   27.15
   0   6  -3  471.00   28.32
   0  -6  -3  395.78   16.93
   0  -6   3  429.15   17.91
   0   6  -3  431.64   18.08
   0   6   3  390.96   17.02
   0  -6   3  438.57   28.59
   2   6  -3  116.93    8.54
   2  -6   3  112.12    6.18
  -2   6   3   98.10    7.23
  -2  -6  -3  121.33   17.18
   2   6  -3  109.06   19.94
  -2   6   3  135.86   22.61
   2  -6   3  107.57   12.31
  -2  -6  -3   98.19    5.51
  -2   6  -3  134.29   13.08
  -2   6  -3  102.12    5.71
   2  -6  -3  122.98   20.64
   2   6   3  136.81   14.59
  -2  -6   3  122.33    8.52
   2  -6  -3  108.89    7.68
  -2  -6   3  120.89   21.92
   2   6   3  101.90    6.36
   4   6  -3   58.04    8.56
   4  -6   3   52.08   10.69
  -4   6   3   63.14    7.68
   4   6  -3   87.77   23.09
  -4   6   3   56.48    8.21
   4  -6   3   58.71    5.08
  -4  -6  -3   64.69    3.73
  -4  -6  -3   62.00    3.68
  -4  -6  -3   72.70   16.10
  -4  -6   3   60.57   20.25
   4  -6  -3   66.95    8.46
  -4  -6   3   68.27    9.27
   4   6   3   69.40    6.23
   4  -6  -3   54.34   21.90
   4  -6  -3   35.36   16.27
  -6   6   3   83.57    8.81
   6   6  -3  112.05   14.31
   6  -6   3   60.68   18.70
   6  -6   3   85.85    7.20
   6  -6   3  100.96   17.41
  -6   6   3  105.22   13.26
   6   6  -3   64.23   27.08
  -6  -6  -3   98.36   23.61
  -6  -6   3  100.56   29.93
   6  -6  -3   83.19   29.27
  -6  -6   3   82.55    8.73
  -6  -6   3   92.77   10.43
   6   6   3   82.13   20.32
   6  -6  -3   93.70    9.51
   6  -6  -3   87.44   24.85
   6   6   3   83.75    8.12
  -8   6   3   28.46    7.32
   8   6  -3   27.10   29.16
   8   6  -3   26.10    8.71
   8  -6   3   -1.02   20.01
  -8   6   3    8.21    6.51
   8  -6   3   23.25    6.12
  -8  -6  -3   24.56   22.23
   8  -6  -3   28.09    8.16
   8  -6  -3   33.36   27.81
   8   6   3   29.27    7.15
  -8  -6   3   26.27    8.37
  -8  -6   3    5.73   26.08
   8   6   3   10.42   21.65
   8  -6  -3   17.53   33.59
  -8  -6   3   39.25    8.77
  10  -6   3    4.99   24.38
  10  -6   3  -20.90   31.47
  10  -6   3   10.84    6.14
  10   6  -3    2.55   41.48
 -10   6   3   21.10    9.14
 -10  -6  -3   34.53   36.23
  10  -6  -3   34.99    9.42
  10  -6  -3   40.10   35.82
 -10  -6   3   19.34    9.09
  10  -6  -3   40.46   42.21
 -10  -6   3   29.88   42.83
  10   6   3    4.12   32.81
  10   6   3   24.25    7.67
   1   7  -3 1923.75   87.96
   1  -7   3 1970.12   83.90
  -1   7   3 1978.08   71.66
   1   7  -3 2015.25   73.09
   1  -7   3 2022.55   71.11
  -1  -7  -3 1928.91   84.92
  -1  -7  -3 2003.43   70.63
  -1   7   3 1834.79   88.69
   1  -7  -3 2046.26   87.93
   1  -7  -3 1911.59   71.62
  -1   7  -3 2024.06   71.25
  -1  -7   3 1936.75   89.87
   1   7   3 2033.69   71.02
  -1   7  -3 1948.86   82.86
  -1  -7   3 2023.05   72.77
   1   7   3 2056.16   85.07
  -3  -7  -3 2850.91  118.68
   3   7  -3 2913.16  128.66
   3  -7   3 2868.93  113.19
   3   7  -3 2775.46  105.25
  -3  -7   3 2874.95  131.54
  -3   7  -3 2990.85  114.65
   3  -7  -3 2932.75  127.33
   3   7   3 2803.25  116.62
  -5  -7  -3  438.82   17.58
  -5  -7  -3  487.63   17.89
   5   7  -3  402.43   42.55
   5   7  -3  434.69   23.57
   5  -7   3  496.88   36.55
  -5   7   3  424.50   21.40
  -5   7   3  459.00   23.50
   5  -7   3  533.57   31.28
  -5  -7  -3  413.47   36.46
   5  -7   3  462.69   19.43
   5  -7  -3  470.97   22.39
   5   7   3  459.79   21.05
   5   7   3  463.82   21.57
   5  -7  -3  459.85   42.76
  -5  -7   3  466.80   23.79
  -5  -7   3  434.11   21.52
  -5  -7   3  415.24   44.85
   5  -7  -3  453.79   47.45
   5   7   3  377.10   33.08
   7  -7   3  611.00   26.43
  -7  -7  -3  556.05   22.50
   7  -7   3  610.12   49.42
  -7  -7  -3  565.17   22.75
   7   7  -3  640.07   65.04
  -7   7   3  561.01   28.01
   7   7  -3  582.78   31.01
  -7  -7  -3  590.45   52.32
   7  -7   3  606.38   41.90
  -7   7   3  691.17   31.55
   7   7   3  609.22   27.81
  -7  -7   3  647.00   31.39
   7   7   3  637.87   49.13
  -7  -7   3  559.38   61.66
   7  -7  -3  652.21   57.00
  -7  -7   3  639.03   29.28
   7  -7  -3  639.66   64.87
   7  -7  -3  592.23   29.30
   9  -7   3  157.18   13.23
   9  -7   3  185.51   39.03
   9   7  -3  220.77   28.84
  -9   7   3  195.91   15.05
   9   7  -3  252.26   56.63
  -9  -7  -3  214.10   44.35
  -9   7   3  194.63   17.25
  -9  -7   3  164.33   49.26
  -9  -7   3  160.93   16.57
  -9  -7   3  194.83   15.23
   9  -7  -3  161.80   43.94
   9   7   3  158.16   37.59
   9  -7  -3  172.62   48.96
   9  -7  -3  151.92   15.02
   9   7   3  173.22   14.06
  11  -7   3   61.37   31.98
  11   7  -3   25.79   52.40
 -11  -7  -3   -3.29   39.98
 -11   7   3   88.84   14.77
  11  -7   3   57.68   47.65
  11  -7   3   96.61   13.11
  11   7   3   87.42   12.30
 -11  -7   3  -49.47   56.36
  11  -7  -3  140.02   51.63
  11  -7  -3  114.05   57.85
  11   7   3  153.32   50.68
  11  -7  -3   81.84   14.17
 -11  -7   3  123.97   18.30
   0  -8  -3   99.82   16.91
   0   8   3   72.11   16.13
   0  -8   3  101.81    7.10
   0   8  -3   91.70    7.05
   0  -8  -3  101.24    6.91
   0  -8   3  100.74   19.18
   0   8  -3  111.03   18.08
   0   8   3  105.16    6.90
   2   8  -3   63.51    6.88
   2  -8   3   57.18   12.42
  -2  -8  -3   67.63   15.42
   2   8  -3   32.27   13.91
   2  -8   3   52.84    5.35
  -2  -8  -3   66.28    5.15
  -2   8   3   56.55    5.93
  -2   8   3   90.40   20.07
   2   8   3   64.17    5.89
   2   8   3   64.94   14.01
  -2  -8   3   32.80   14.65
  -2  -8   3   61.19    6.83
   2  -8  -3   38.34   13.19
  -2   8  -3   69.20   13.27
  -2   8  -3   55.27    4.64
   2  -8  -3   80.90    6.90
  -4  -8  -3   91.51    6.09
  -4   8   3   73.16    8.53
  -4   8   3   81.99    7.62
   4   8  -3   97.49   26.05
  -4  -8  -3   89.64    5.57
   4  -8   3   74.81   14.58
   4  -8   3   81.86    6.56
  -4  -8  -3   76.77   18.39
   4   8  -3   78.25    8.80
   4  -8  -3   48.39   21.94
   4   8   3  104.08   19.35
  -4  -8   3  129.34   29.53
   4  -8  -3   85.83   22.06
  -4   8  -3   99.53   17.79
   4  -8  -3   93.80    8.52
  -4  -8   3   83.49    9.05
   4   8   3   82.81    7.58
   6  -8   3  107.21   18.86
   6  -8   3  103.07   23.97
  -6  -8  -3  108.53    7.07
  -6  -8  -3  119.30    6.85
   6   8  -3  102.49   11.36
  -6   8   3  104.62   11.35
   6  -8   3   97.07    8.35
  -6  -8  -3  100.51   26.36
  -6   8   3  114.79   10.59
   6   8  -3  143.99   33.21
  -6  -8   3  113.89   10.18
   6   8   3  119.46   24.15
  -6  -8   3   79.32   29.77
   6  -8  -3  110.21   10.78
   6   8   3  113.27    9.95
   6  -8  -3   80.95   29.89
   6  -8  -3   96.27   26.92
  -6  -8   3  125.57   12.23
  -8   8   3   23.89    8.43
   8  -8   3   36.64    7.40
   8   8  -3   26.39   32.47
   8  -8   3   15.13   21.43
  -8  -8  -3   33.58    4.14
  -8  -8  -3   30.37    4.39
  -8   8   3   37.97    8.27
   8   8  -3   19.41    7.76
  -8  -8  -3    4.15   23.33
   8  -8  -3   38.83    9.22
  -8  -8   3   32.55    9.29
   8   8   3   55.05   24.23
  -8  -8   3   48.65    9.65
   8   8   3   31.11    7.48
   8  -8  -3   47.22   26.69
  -8  -8   3   21.81   29.56
   8  -8  -3   73.39   36.03
  10   8  -3   10.33   43.34
 -10  -8  -3   13.34   34.92
  10  -8   3    8.60   34.82
  10  -8   3    2.15    5.94
 -10   8   3    9.97    7.57
  10  -8   3   19.78   24.71
  10   8   3  -11.95   34.20
  10  -8  -3   58.23   47.30
  10  -8  -3   13.12    7.83
 -10  -8   3   16.80    8.85
 -10  -8   3   36.66   48.16
  10   8   3   13.25    7.39
   1   9  -3 1251.66   66.40
   1   9  -3 1280.91   50.86
  -1  -9  -3 1306.76   48.82
  -1   9   3 1305.66   69.27
   1  -9   3 1217.04   63.65
   1  -9   3 1345.00   49.37
  -1   9   3 1280.80   49.51
   1  -9  -3 1400.53   66.93
  -1   9  -3 1342.18   49.35
   1   9   3 1322.96   64.91
   1   9   3 1332.51   49.26
  -1  -9   3 1362.20   70.09
  -1   9  -3 1365.32   64.14
   1  -9  -3 1334.18   49.84
  -1  -9   3 1337.87   50.66
  -3  -9  -3  311.28   13.84
  -3  -9  -3  246.93   27.23
   3   9  -3  332.52   33.52
   3   9  -3  313.29   17.30
  -3   9   3  277.43   15.12
   3  -9   3  246.79   24.29
  -3   9   3  336.83   34.96
   3  -9   3  308.14   14.27
  -3  -9   3  347.74   35.54
   3  -9  -3  358.87   32.61
   3   9   3  291.52   15.07
  -3  -9   3  311.98   16.85
   3   9   3  300.53   27.33
   3  -9  -3  306.24   15.99
  -3   9  -3  304.60   13.00
  -3   9  -3  272.09   25.07
   5   9  -3  548.37   28.55
  -5   9   3  576.61   26.42
  -5   9   3  574.86   28.32
   5   9  -3  567.18   52.91
  -5  -9  -3  586.11   23.39
  -5  -9  -3  553.72   44.64
   5  -9   3  549.09   36.59
   5  -9   3  603.06   24.64
  -5  -9  -3  577.57   23.10
  -5   9  -3  608.95   42.32
   5   9   3  578.12   26.37
   5  -9  -3  706.63   59.82
   5  -9  -3  599.18   27.46
   5   9   3  583.69   42.33
  -5  -9   3  562.26   53.79
   5   9   3  581.21   26.96
  -5  -9   3  589.62   28.57
   5  -9  -3  571.04   50.33
  -7  -9  -3  514.31   21.25
   7   9  -3  547.38   57.41
  -7  -9  -3  540.66   51.16
   7  -9   3  508.28   39.12
  -7  -9  -3  512.41   21.56
   7   9  -3  525.12   29.10
   7  -9   3  519.34   24.17
  -7   9   3  521.25   28.31
   7  -9   3  510.91   47.35
  -7   9   3  526.16   26.08
   7  -9  -3  545.64   27.30
   7   9   3  582.50   47.07
  -7  -9   3  524.11   28.29
  -7  -9   3  559.29   62.45
   7   9   3  504.70   25.92
   7  -9  -3  466.39   59.85
   7  -9  -3  594.55   57.60
  -7  -9   3  516.99   26.38
  -9  -9  -3  123.88   39.39
  -9   9   3  114.71   13.43
   9  -9   3   83.15   34.36
   9  -9   3  115.03   11.72
  -9   9   3  112.80   15.55
   9   9  -3  144.08   52.50
  -9  -9  -3   91.29    6.64
  -9  -9  -3   92.81    6.39
   9  -9  -3   90.30   13.31
   9   9   3  121.29   12.82
  -9  -9   3  104.82   14.53
   9  -9  -3   56.89   41.14
   9  -9  -3   80.48   36.24
   9   9   3   62.55   32.33
  -9  -9   3   85.15   43.87
  11  -9   3  132.49   50.50
  11   9  -3  137.98   62.77
 -11   9   3   80.34   13.62
  11  -9   3   73.84   12.33
 -11  -9  -3  -28.88   45.02
 -11  -9   3  130.51   19.35
  11  -9  -3   97.42   63.25
  11   9   3  110.71   14.53
 -11  -9   3   49.92   58.74
  11   9   3  100.66   50.92
  11  -9  -3   94.89   51.73
  11  -9  -3   79.44   14.32
   0 -10   3  198.78   11.53
   0 -10  -3  231.66   22.99
   0  10  -3  187.54   11.59
   0  10  -3  237.86   23.81
   0 -10   3  205.39   28.45
   0  10   3  175.91   22.26
   0 -10  -3  204.68   11.43
   0 -10   3  210.75   11.96
   0  10   3  215.82   11.41
  -2  10   3  159.13   27.98
  -2  10   3  102.68    7.96
  -2 -10  -3  110.04    7.61
   2 -10   3   91.13    7.66
   2  10  -3   94.28    8.77
   2 -10   3   88.53   18.14
   2  10  -3   99.33   21.41
  -2 -10   3  155.25   27.52
   2  10   3  128.24   20.49
  -2  10  -3   98.77    7.03
  -2 -10   3  101.24    9.00
  -2  10  -3   99.00   17.45
   2 -10  -3  118.58    8.70
   2  10   3   95.15    7.90
   2 -10  -3  143.95   24.08
  -4  10   3   58.08    9.22
   4 -10   3   67.47    6.71
  -4 -10  -3   67.88    6.85
  -4 -10  -3   54.75   18.08
   4 -10   3   50.94   14.59
   4  10  -3   57.80    9.79
  -4  10   3   52.83    7.82
   4  10  -3   65.60   23.46
   4 -10  -3   69.33   20.23
  -4  10  -3   56.43   16.76
  -4 -10   3   63.43   23.17
   4 -10  -3   66.96    9.22
  -4 -10   3   59.71    8.86
   4  10   3   62.02   18.44
   4  10   3   65.12    8.42
  -6  10   3  112.29   14.24
  -6 -10  -3   91.11    7.55
   6  10  -3   75.23   30.08
   6 -10   3   83.42    9.09
  -6 -10  -3  126.39   28.35
   6  10  -3   94.48   13.87
  -6  10   3   96.18   11.01
  -6 -10  -3   84.54    6.97
   6 -10   3   71.08   23.35
   6 -10   3   66.78   16.49
  -6 -10   3   67.54   30.05
   6 -10  -3   87.14   11.76
  -6 -10   3   93.65    9.78
   6  10   3   60.16   21.09
  -6 -10   3   82.09   11.36
   6 -10  -3   89.46   32.07
   6  10   3   94.78   10.12
   6 -10  -3   87.11   27.06
  -8 -10  -3   12.98    4.43
   8 -10   3   28.17   26.31
  -8 -10  -3   15.44   26.79
  -8  10   3   27.91    8.79
  -8 -10  -3   13.62    4.08
   8 -10   3   30.80    7.20
  -8  10   3   24.92    7.59
   8  10  -3   39.93   10.07
   8  10  -3    7.60   31.63
   8  10   3   -4.59   19.84
  -8 -10   3   13.61   31.27
   8 -10  -3   76.08   37.91
  -8 -10   3   20.53    8.74
   8 -10  -3   25.42   26.43
   8 -10  -3   16.07    7.26
   8  10   3   28.42    8.41
  -8 -10   3   24.34    7.49
  10 -10   3  -33.11   36.74
  10  10  -3  -44.23   49.05
 -10  10   3    9.90    8.39
  10 -10   3   18.32    7.70
 -10 -10  -3   49.18   40.07
  10 -10   3   -3.56   25.50
 -10 -10   3   15.91    8.77
  10 -10  -3   12.63    8.39
  10  10   3   24.92   36.47
 -10 -10   3   64.48   48.71
  10 -10  -3   48.09   52.47
  10  10   3   15.15    7.22
   1  11  -3  666.58   28.17
  -1 -11  -3  567.12   42.83
  -1  11   3  654.33   47.04
  -1 -11  -3  672.12   26.40
  -1  11   3  597.71   26.24
   1 -11   3  666.10   26.81
   1  11  -3  615.29   43.34
   1 -11   3  559.58   40.99
  -1 -11   3  628.84   27.51
  -1 -11   3  608.25   45.11
  -1  11  -3  619.70   26.48
   1  11   3  622.43   26.39
  -1 -11   3  623.84   27.36
   1 -11  -3  633.30   26.91
  -1  11  -3  580.66   39.89
   1  11   3  664.18   42.93
   1 -11  -3  568.09   41.22
   3 -11   3  689.19   44.33
  -3 -11  -3  697.88   28.45
  -3  11   3  717.58   54.60
  -3  11   3  678.63   29.66
   3  11  -3  655.18   31.54
   3  11  -3  761.20   53.40
   3 -11   3  700.35   28.84
  -3 -11   3  726.56   31.69
  -3  11  -3  765.03   45.95
   3 -11  -3  622.84   47.09
  -3 -11   3  668.73   53.54
   3  11   3  694.20   29.95
  -3  11  -3  675.87   27.58
   3  11   3  736.57   47.32
   3 -11  -3  732.57   30.72
   5 -11   3  272.74   14.88
  -5 -11  -3  287.59   14.30
  -5  11   3  261.18   16.12
   5  11  -3  279.18   18.57
   5  11  -3  319.62   46.25
   5 -11   3  288.23   28.51
  -5  11   3  278.20   17.94
  -5 -11  -3  284.37   39.32
   5 -11  -3  253.91   16.81
   5  11   3  269.19   33.42
   5 -11  -3  321.33   53.44
   5  11   3  279.11   16.80
  -5  11  -3  289.82   31.54
   5 -11  -3  286.25   41.13
  -5 -11   3  332.13   51.93
  -5 -11   3  272.13   18.13
   5  11   3  285.76   17.30
  -7  11   3  343.52   22.28
   7 -11   3  355.14   19.00
  -7  11   3  355.18   20.34
   7 -11   3  425.18   47.76
  -7 -11  -3  363.56   16.58
   7  11  -3  345.83   23.75
   7  11  -3  348.26   56.17
  -7 -11  -3  369.27   51.35
  -7 -11  -3  333.71   16.77
   7 -11  -3  318.99   49.12
  -7 -11   3  373.15   21.33
   7  11   3  336.47   41.05
   7  11   3  327.15   20.49
   7 -11  -3  320.54   56.38
   7 -11  -3  354.76   21.80
  -7 -11   3  297.01   53.48
  -7 -11   3  368.12   23.12
  -9 -11  -3   76.25    7.10
   9 -11   3  100.52   12.49
  -9  11   3   79.56   13.10
   9  11  -3   89.98   45.56
  -9 -11  -3   62.26   38.64
   9 -11   3   41.98   35.68
   9 -11   3   76.15   34.58
  -9 -11  -3   75.55    7.57
   9  11   3  138.23   17.19
   9 -11  -3  110.18   51.57
  -9 -11   3  124.45   50.59
   9 -11  -3   83.26   36.57
  -9 -11   3   94.82   14.82
  -9 -11   3   63.79   13.24
   9  11   3   50.54   31.16
   9 -11  -3   70.58   12.41
 -11  11   3   63.09   13.57
 -11 -11  -3    9.54   48.78
  11  11  -3  121.02   72.47
  11 -11   3   63.23   11.50
  11 -11   3   16.37   49.22
  11 -11  -3   13.18   52.75
 -11 -11   3   58.56   13.43
 -11 -11   3   22.05   60.64
 -11 -11   3   69.70   14.98
  11 -11  -3   40.71   11.87
  11  11   3   82.79   46.63
  11 -11  -3  -45.15   61.01
   0  12  -3  371.95   33.25
   0 -12   3  311.19   16.08
   0  12   3  342.07   32.36
   0  12   3  278.76   15.09
   0 -12  -3  279.08   29.38
   0 -12   3  257.90   29.66
   0 -12  -3  295.95   15.36
   0  12  -3  291.42   15.99
  -2 -12  -3   53.71   19.29
   2 -12   3   42.00    6.65
   2  12  -3   37.33    6.95
  -2  12   3   40.59    6.64
  -2  12   3   34.42   18.07
   2 -12   3   26.86   12.91
   2  12  -3   43.38   18.06
  -2 -12  -3   56.20    7.12
  -2  12  -3   41.07   15.35
   2 -12  -3   41.80   16.01
   2  12   3   50.85   16.98
   2  12   3   43.43    6.92
  -2  12  -3   55.15    6.63
  -2 -12   3   46.36    8.08
  -2 -12   3   40.66    7.28
   2 -12  -3   53.06    7.69
  -2 -12   3    9.54   14.31
   4  12  -3   32.23   20.99
   4 -12   3   20.78    5.27
  -4 -12  -3   19.47    4.92
  -4 -12  -3    8.42   15.57
   4  12  -3   10.49    5.98
  -4  12   3    8.99    4.80
  -4  12   3   31.56   21.55
   4 -12   3    6.42   11.69
   4  12   3   19.35    6.00
  -4 -12   3   10.68    5.89
  -4 -12   3   26.86   19.40
  -4  12  -3   15.37   14.84
   4 -12  -3   18.90    5.87
   4  12   3   17.00   13.68
  -4  12  -3   14.78    3.89
  -4 -12   3   11.09    5.57
   4 -12  -3   34.62   17.48
  -6  12   3   57.69   11.57
   6  12  -3   62.43   30.20
  -6 -12  -3   71.38    7.60
  -6 -12  -3   40.49   22.50
   6  12  -3   66.41   11.03
   6 -12   3   71.43    9.22
   6 -12   3   66.87   19.14
  -6 -12  -3   59.64    7.55
  -6  12   3   55.13    8.91
  -6 -12   3   77.85   12.87
   6  12   3   74.52   23.88
   6 -12  -3  108.25   30.01
   6 -12  -3   63.29   32.01
  -6 -12   3   79.00   35.05
   6  12   3   55.54    9.64
   6 -12  -3   63.18   10.61
  -8  12   3   22.99    8.49
  -8 -12  -3   12.18    4.57
  -8  12   3   24.64    8.01
   8 -12   3   12.62    6.40
   8 -12   3   15.83   28.72
   8  12  -3  -59.38   31.80
  -8 -12  -3  -37.73   27.16
  -8 -12  -3   24.68    5.83
  -8 -12   3  -65.65   34.67
   8 -12  -3   15.06    7.72
  -8 -12   3   13.54    8.41
   8  12   3   16.90    8.25
   8 -12  -3   19.46   37.03
  -8 -12   3   22.74    8.79
   8  12   3   -5.02   24.83
   8 -12  -3    8.90   28.35
 -10  12   3   13.44    8.59
  10 -12   3   10.04    7.33
  10  12  -3    9.84   50.86
  10 -12   3   15.69   25.90
 -10 -12  -3   -0.26    0.89
 -10 -12  -3  -24.61   44.72
  10 -12   3  -43.50   38.60
 -10 -12  -3   -2.53    2.77
 -10 -12   3    4.88    9.11
  10  12   3    7.75    7.22
 -10 -12   3  -98.54   49.79
  10 -12  -3    4.88    8.43
  10 -12  -3  -13.28   56.52
 -10 -12   3   12.16    9.25
  10  12   3  -51.89   36.22
  10 -12  -3  -63.71   40.69
   1 -13   3  727.64   30.67
   1  13  -3  725.70   31.97
  -1 -13  -3  704.51   50.32
  -1 -13  -3  726.60   30.25
   1 -13   3  697.34   49.56
  -1  13   3  659.20   29.99
   1  13  -3  664.73   48.83
  -1  13   3  760.12   53.24
  -1  13  -3  717.37   30.55
   1  13   3  681.17   30.32
   1 -13  -3  742.31   30.87
   1  13   3  665.97   47.48
  -1  13  -3  845.50   50.88
  -1 -13   3  674.65   51.86
   1 -13  -3  695.39   47.95
  -1 -13   3  723.32   31.22
  -3  13   3  311.42   17.06
  -3 -13  -3  315.26   16.35
   3 -13   3  308.91   30.88
   3 -13   3  337.32   16.76
  -3  13   3  369.29   43.21
   3  13  -3  314.58   19.20
   3  13  -3  375.36   39.69
   3  13   3  310.01   17.62
  -3 -13   3  319.64   18.61
   3  13   3  299.65   33.30
  -3  13  -3  321.67   15.75
  -3 -13   3  292.30   43.99
  -3  13  -3  286.80   30.87
   3 -13  -3  309.42   17.87
  -3 -13   3  295.76   18.30
   3 -13  -3  311.67   33.96
   5  13  -3  333.73   47.66
   5 -13   3  296.80   16.86
  -5 -13  -3  293.67   16.04
  -5 -13  -3  314.41   45.39
   5 -13   3  256.56   31.94
  -5  13   3  310.67   20.02
   5  13  -3  313.66   20.72
  -5  13   3  292.31   17.54
  -5 -13   3  323.70   19.98
  -5  13  -3  298.60   36.19
  -5 -13   3  306.14   49.53
  -5  13  -3  317.79   14.68
   5 -13  -3  303.03   19.07
  -5 -13   3  340.87   20.65
   5  13   3  317.41   38.65
   5 -13  -3  336.99   40.00
   5  13   3  314.67   19.09
   5  13   3  309.53   19.24
   7  13  -3  345.16   56.22
  -7  13   3  239.92   18.88
   7  13  -3  244.64   20.15
   7 -13   3  218.68   15.40
  -7  13   3  255.87   17.19
  -7 -13  -3  219.69   13.83
  -7 -13  -3  197.34   41.65
   7 -13   3  183.60   39.95
  -7 -13  -3  223.24   13.27
  -7 -13   3  266.38   19.97
   7  13   3  214.55   36.08
  -7 -13   3  251.01   18.93
   7 -13  -3  162.78   48.69
   7  13   3  213.42   17.22
   7 -13  -3  201.60   42.48
   7 -13  -3  243.85   18.45
  -7 -13   3  348.57   63.00
  -7 -13   3  245.46   17.32
   9  13  -3   90.13   47.65
  -9  13   3   53.49   12.11
  -9 -13  -3  135.56   45.05
   9 -13   3   47.90   24.39
  -9 -13  -3   89.94    7.87
  -9 -13  -3   71.74    8.52
   9 -13   3   64.09   11.15
   9 -13   3   21.51   34.86
  -9 -13   3   50.66   45.79
   9 -13  -3   74.19   12.89
   9  13   3   76.44   13.08
   9 -13  -3   32.90   35.57
  -9 -13   3   60.14   12.48
   9  13   3   30.40   33.75
   9 -13  -3  161.81   61.99
  -9 -13   3   99.50   15.86
  11 -13   3   36.24   10.68
  11 -13  -3   28.94   10.82
   0  14   3   19.41    5.51
   0  14  -3   12.14    5.05
   0 -14  -3   10.33    4.91
   0 -14   3   14.88    5.56
   0  14   3   29.13   16.51
   0 -14   3   12.84   16.75
   0  14  -3   14.12   14.96
   0 -14  -3   13.19   13.95
  -2  14   3   -7.70   16.13
   2 -14   3   26.55    6.35
   2 -14   3   24.19   14.37
  -2  14   3   13.90    4.98
   2  14  -3   24.89    6.75
  -2 -14  -3   10.29   15.00
  -2 -14  -3   24.58    5.94
   2  14  -3   31.66   19.31
   2 -14  -3   12.57   13.49
   2 -14  -3   24.12    6.23
  -2 -14   3   24.30    6.72
   2  14   3   20.54    5.95
  -2  14  -3   18.37    5.22
  -2 -14   3    6.80   15.88
   2  14   3   38.35   16.26
  -2  14  -3    9.81   12.44
   4 -14   3   15.55    5.75
  -4  14   3   24.54   24.09
   4  14  -3   23.68   23.28
  -4 -14  -3   24.41    5.93
   4 -14   3    5.89   15.20
  -4  14   3   10.18    5.29
   4  14  -3    7.03    5.69
   4 -14  -3   23.04    6.83
  -4  14  -3   24.08   18.05
   4 -14  -3    6.60   15.89
   4  14   3    1.00   16.11
  -4 -14   3   15.30   20.90
  -4 -14   3    9.26    6.12
  -4  14  -3   16.32    4.56
  -4 -14   3   12.54    7.07
   4  14   3   19.15    6.58
  -6  14   3   46.49    8.70
   6  14  -3   72.81   12.18
  -6 -14  -3   74.18    9.03
   6 -14   3   48.90   19.52
  -6  14   3   59.14   12.19
   6  14  -3  117.99   37.13
   6 -14   3   49.85    8.69
  -6 -14  -3   27.56   25.30
   6  14   3   73.62   11.47
   6  14   3   12.46   20.84
  -6 -14   3   42.36   31.69
  -6  14  -3   16.08   21.70
  -6 -14   3   52.26   10.04
   6 -14  -3   60.04   26.54
  -6  14  -3   55.70    6.36
   6 -14  -3   71.11   36.15
  -6 -14   3   41.19    9.74
   6 -14  -3   46.69    9.56
   8 -14   3  -22.24   29.91
   8 -14   3   15.62   22.71
  -8 -14  -3   23.04    5.92
  -8 -14  -3   61.65   39.02
  -8 -14  -3   10.75    5.74
   8 -14   3   20.14    7.35
  -8  14   3   15.15    8.90
   8  14  -3   15.98   36.52
  -8 -14   3   13.06    8.41
  -8 -14   3   22.80    9.50
   8  14   3    4.02   28.28
  -8 -14   3    1.35   40.95
   8 -14  -3   20.82   27.99
   8  14   3   17.02    8.88
   8 -14  -3   10.22    7.65
   8 -14  -3    2.64   38.71
  10 -14   3  -31.02   31.19
 -10 -14  -3    0.46    1.41
  10 -14   3  -21.75   49.21
 -10  14   3    6.24    8.76
 -10 -14  -3  -34.88   49.83
 -10 -14  -3   -2.20    3.03
  10  14  -3   59.37   56.30
  10 -14   3    6.91    7.39
  10 -14  -3  -23.88   40.26
  10  14   3  -32.77   40.20
  10 -14  -3   27.99   65.57
 -10 -14   3   -0.39    8.75
  10 -14  -3    3.68    8.28
 -10 -14   3   41.13   56.78
 -10 -14   3   -9.48    7.27
   1 -15   3  296.92   16.54
  -1 -15  -3  273.43   15.85
  -1  15   3  250.09   15.55
   1 -15   3  246.72   35.82
  -1  15   3  260.48   38.73
  -1 -15  -3  258.46   38.49
   1  15  -3  255.06   16.92
   1  15  -3  315.80   35.02
   1 -15  -3  272.52   37.94
   1  15   3  250.12   31.21
  -1  15  -3  273.23   16.04
  -1 -15   3  268.53   16.83
  -1  15  -3  307.83   32.64
   1 -15  -3  263.16   16.24
  -1 -15   3  279.15   41.45
   1  15   3  267.41   15.92
  -3 -15  -3  350.60   18.96
  -3 -15  -3  303.11   44.67
  -3  15   3  381.39   20.04
   3  15  -3  353.42   42.47
   3 -15   3  377.06   19.57
  -3  15   3  386.59   45.26
   3  15  -3  391.54   22.64
   3 -15   3  362.09   36.54
   3 -15  -3  335.20   37.32
  -3  15  -3  378.32   18.82
   3  15   3  366.82   39.96
   3  15   3  365.32   20.80
   3 -15  -3  395.04   21.37
  -3 -15   3  380.78   21.37
  -3 -15   3  347.33   43.82
  -3  15  -3  360.10   37.87
  -5  15   3  229.59   15.56
   5  15  -3  194.95   17.05
   5  15  -3  246.59   45.50
  -5  15   3  205.93   16.97
  -5  15   3  254.30   46.93
   5 -15   3  209.84   14.36
   5 -15   3  129.43   27.54
  -5 -15  -3  202.53   13.63
   5  15   3  213.86   16.52
  -5 -15   3  223.67   43.78
  -5  15  -3  238.64   39.17
   5  15   3  105.89   28.83
  -5  15  -3  215.03   12.36
   5  15   3  191.96   16.08
   5 -15  -3  142.32   31.54
  -5 -15   3  204.23   16.61
  -5 -15   3  221.52   17.17
   5 -15  -3  194.20   15.78
  -7  15   3  161.18   16.79
  -7 -15  -3  180.29   12.03
  -7  15   3  159.41   14.26
  -7 -15  -3  158.29   12.66
   7 -15   3  174.35   14.10
   7  15  -3  255.79   52.11
  -7 -15  -3  127.88   38.38
   7  15   3  149.12   15.46
   7 -15  -3  120.88   34.93
   7 -15  -3  179.32   16.75
   7  15   3  182.83   37.96
  -7 -15   3  145.29   46.93
  -7 -15   3  135.98   17.08
   7 -15  -3  231.27   55.58
  -7 -15   3  172.43   16.76
  -9 -15  -3   65.57    9.07
  -9 -15  -3   24.54   40.44
  -9 -15  -3   91.75    7.86
   9 -15   3   27.66   29.57
  -9  15   3   97.49   17.04
   9 -15   3   65.40   11.87
   9  15  -3   81.75   55.83
   9 -15   3   58.69   45.30
  -9 -15   3   52.30   54.92
   9 -15  -3   28.88   50.63
  -9 -15   3   94.32   16.96
  -9 -15   3   58.23   13.03
   9 -15  -3   57.20   12.12
   9  15   3   75.01   38.88
   0 -16  -3   84.80   23.67
   0 -16   3   59.65   22.83
   0  16  -3  109.93   24.92
   0  16  -3   96.49   10.51
   0 -16   3  107.22   11.89
   0  16   3   99.92   11.57
   0  16   3   88.98   25.63
   0 -16  -3  105.64   11.52
   2 -16   3   26.77   18.55
  -2 -16  -3   22.50   20.73
   2 -16   3   63.89    9.12
  -2 -16  -3   58.49    8.95
  -2  16   3   62.36    8.84
   2  16  -3   45.89   22.06
  -2  16   3   60.38   25.44
   2  16  -3   56.47    9.87
  -2 -16   3   53.39    9.31
   2 -16  -3  103.09   24.88
  -2  16  -3   63.21    8.81
  -2 -16   3   35.84   21.75
   2  16   3   68.47    9.94
   2 -16  -3   65.90    9.56
   2  16   3   82.03   24.21
  -2  16  -3   57.10   20.36
  -4 -16  -3   39.54    7.90
   4 -16   3   41.87    8.05
  -4  16   3   38.96   26.94
   4  16  -3   49.15    9.92
   4  16  -3   54.50   25.51
   4 -16   3   45.55   21.81
  -4 -16  -3   19.49   22.87
  -4  16   3   50.37    8.93
   4 -16  -3   72.39   11.02
   4  16   3   87.29   26.94
   4 -16  -3   38.87   21.42
  -4  16  -3   36.29   21.90
  -4  16  -3   45.20    7.30
  -4 -16   3   57.27   28.97
  -4 -16   3   54.13   10.57
   4  16   3   40.63    8.82
  -6  16   3   62.22    9.81
  -6  16   3   40.30    9.75
   6 -16   3   41.32   22.97
   6 -16   3   34.52    8.40
   6  16  -3   30.93   33.35
  -6 -16  -3   47.86    8.30
  -6 -16   3   32.70    9.49
   6 -16  -3   52.83   27.31
   6  16   3   36.58   27.34
  -6  16  -3   46.19    6.78
  -6 -16   3   50.98   11.05
   6 -16  -3   26.63    8.97
  -6  16  -3   48.15   26.71
  -6 -16   3   15.23   30.97
   6  16   3   42.10   10.02
  -8  16   3   14.68    9.25
  -8 -16  -3    7.98    5.31
  -8 -16  -3   47.49   42.45
   8 -16   3    8.15   24.41
   8  16  -3  -22.91   39.51
   8 -16   3   12.41    7.33
  -8 -16  -3   16.78    6.55
   8 -16   3   39.62   38.19
  -8 -16   3    8.73    8.07
  -8 -16   3    4.06   41.04
  -8 -16   3    8.31    8.32
   8 -16  -3  -38.53   26.80
   8 -16  -3   27.49   49.26
   8 -16  -3   14.78    9.09
   8  16   3   29.13   31.15
 -10  16   3   11.85    9.73
  10 -16   3   51.96   53.51
 -10 -16  -3  -35.11   54.38
 -10 -16  -3   -1.05    3.33
  10 -16   3   23.87    8.98
  10  16  -3   -6.94   64.27
 -10 -16   3   91.14   70.38
  10 -16  -3   -8.48   47.93
  10  16   3   21.94   46.34
 -10 -16   3   12.29   10.21
  10 -16  -3   -0.41    8.01
  10 -16  -3   42.86   66.57
  -1  17   3  448.80   47.61
   1  17  -3  404.66   23.40
  -1  17   3  376.13   21.44
  -1 -17  -3  434.30   21.81
   1  17  -3  400.90   42.18
  -1 -17  -3  381.70   45.97
   1 -17   3  432.16   21.98
   1 -17   3  352.58   39.90
  -1 -17   3  453.83   23.07
  -1  17  -3  387.04   38.61
  -1 -17   3  396.61   45.96
   1 -17  -3  446.35   43.81
   1  17   3  408.09   42.89
  -1  17  -3  434.45   22.47
   1  17   3  359.57   21.55
   1 -17  -3  395.71   22.05
   3 -17   3  257.93   16.49
  -3  17   3  251.51   16.65
   3  17  -3  258.74   42.01
   3  17  -3  255.74   18.97
  -3  17   3  212.91   41.97
   3 -17   3  294.95   36.77
  -3 -17  -3  239.08   16.12
  -3 -17  -3  183.08   37.72
   3  17   3  293.33   36.88
   3  17   3  268.84   17.80
  -3  17  -3  264.96   39.12
  -3  17  -3  273.99   16.21
  -3 -17   3  277.64   47.83
   3 -17  -3  305.47   43.91
   3 -17  -3  220.59   16.93
  -3 -17   3  268.94   18.18
   5 -17   3   94.85   28.00
   5 -17   3  166.58   13.68
  -5  17   3  148.79   13.47
  -5 -17  -3  158.33   12.80
  -5 -17  -3  188.24   42.78
   5  17  -3  122.75   39.38
  -5  17   3  187.53   44.79
  -5  17  -3   44.20   28.86
   5 -17  -3  112.64   30.18
  -5  17  -3  158.25   11.94
   5  17   3  153.52   36.80
   5  17   3  188.74   16.28
  -5 -17   3  159.84   40.86
   5 -17  -3  146.41   14.94
   5  17   3  170.28   16.01
  -5 -17   3  174.20   15.67
   7 -17   3  138.87   13.41
  -7 -17  -3  112.70   10.81
   7  17  -3  123.79   46.79
  -7  17   3  103.05   14.69
  -7 -17  -3  125.48   12.12
   7 -17   3   86.01   27.79
  -7  17  -3   71.37   36.71
  -7 -17   3  133.01   16.80
  -7  17  -3  113.25    9.43
  -7 -17   3  136.23   48.70
   7  17   3   65.46   35.43
   7 -17  -3   63.30   35.97
   7 -17  -3  116.12   59.00
   7 -17  -3  124.03   16.37
  -9  17   3   31.54   11.70
   9 -17   3   18.98   34.08
   9 -17   3   34.37   10.02
  -9 -17  -3   77.57   52.56
  -9 -17  -3   36.20    8.11
   9 -17   3   61.26   49.90
   9  17  -3  -25.50   49.49
   9 -17  -3    0.06   39.85
   9 -17  -3   35.61   57.71
  -9 -17   3   36.05   12.13
   9 -17  -3   33.64   11.31
  -9 -17   3  -31.79   51.63
   9  17   3    0.31   40.50
   0 -18  -3   23.13    7.35
   0  18  -3   49.12    9.21
   0 -18  -3   25.14   21.29
   0 -18   3   32.86   22.83
   0  18   3   36.57    7.85
   0 -18   3   40.40    8.71
   0  18   3   42.87   24.27
   0  18  -3   43.22   20.50
  -2  18   3   85.32   10.98
   2  18  -3   64.10   25.81
   2  18  -3   92.24   13.54
  -2  18   3   86.90   32.34
   2 -18   3   72.23   10.47
  -2 -18  -3   87.86   11.00
  -2 -18  -3   96.27   29.14
   2 -18   3   24.20   21.93
  -2 -18   3   76.90   11.37
   2  18   3   77.88   11.36
  -2  18  -3   94.80   12.04
  -2  18  -3   77.92   24.16
  -2 -18   3   88.31   29.36
   2 -18  -3   62.42   24.46
   2  18   3  100.73   28.10
   2 -18  -3   88.70   11.87
   4 -18   3   19.90   21.06
   4  18  -3   68.82   29.08
  -4 -18  -3   47.83   31.22
  -4  18   3   64.49   28.63
   4  18  -3   47.20   11.18
  -4  18   3   42.86    9.01
   4 -18   3   35.83    8.23
  -4 -18  -3   30.71    7.78
   4  18   3   51.24   26.32
   4  18   3   14.01    7.69
   4 -18  -3   36.98   22.67
   4  18   3   50.85   11.32
  -4  18  -3    5.98   20.47
  -4 -18   3   24.36   28.30
   4 -18  -3   34.96    9.72
  -4  18  -3   34.79    7.38
  -4 -18   3   32.78    8.98
  -6  18   3   13.70    9.25
  -6  18   3   19.59   35.45
  -6 -18  -3   13.46    6.74
   6 -18   3   28.16    8.18
   6  18  -3   -5.19   32.73
  -6 -18  -3   58.35   35.04
  -6 -18   3   10.81    8.34
   6  18   3    2.76   25.20
  -6  18  -3   27.87   31.39
  -6  18  -3   18.41    6.02
   6 -18  -3    9.80    7.62
  -6 -18   3   37.28   36.48
   6 -18  -3    3.08   23.53
  -8 -18  -3   10.65    5.84
   8 -18   3   10.11    7.45
   8 -18   3   39.96   43.71
   8 -18   3   -4.98   28.94
   8  18  -3   48.21   45.98
  -8  18   3   13.50    9.55
  -8 -18  -3   12.57    7.09
  -8 -18   3  -60.98   44.10
   8 -18  -3    6.14    8.37
  -8 -18   3    4.22    8.53
   8 -18  -3 -139.38   54.94
   8  18   3  -21.59   33.32
  -1 -19  -3  160.29   36.44
   1 -19   3  102.98   31.57
   1 -19   3  159.29   14.16
   1  19  -3  150.64   14.69
  -1 -19  -3  149.71   13.42
  -1  19   3  183.50   38.69
  -1  19   3  165.21   13.82
   1  19  -3  204.82   39.31
   1 -19  -3  144.79   36.67
  -1 -19   3  164.80   14.93
   1 -19  -3  158.62   13.98
  -1  19  -3  152.86   13.87
   1  19   3  154.48   14.44
  -1  19  -3  234.05   38.78
   1  19   3  172.65   34.83
  -1 -19   3  191.68   39.82
   3  19  -3  206.71   18.00
   3 -19   3  179.92   14.78
  -3 -19  -3  190.36   41.96
   3 -19   3  119.84   30.06
  -3 -19  -3  190.46   14.75
  -3  19   3  191.68   44.71
   3  19  -3  214.65   42.08
  -3  19   3  191.46   14.97
   3 -19  -3  182.83   16.28
   3 -19  -3  138.94   32.43
  -3 -19   3  197.08   16.56
   3  19   3  176.07   15.61
  -3 -19   3  105.55   35.90
  -3  19  -3  210.16   38.91
   3  19   3  231.70   41.42
  -3  19  -3  188.83   14.48
  -5 -19  -3    2.77   34.40
  -5  19   3   73.98   38.72
   5 -19   3   96.31   12.03
  -5 -19  -3   79.45   11.19
   5  19  -3   59.54   34.43
  -5 -19   3   88.03   13.57
   5  19   3  126.91   24.29
  -5  19  -3   59.89   31.48
   5 -19  -3   69.82   32.55
  -5 -19   3   94.76   40.59
   5  19   3   59.53   31.79
  -5  19  -3   92.52   10.13
   5 -19  -3   84.69   13.46
   7 -19   3   61.96   31.05
   7 -19   3   47.18   10.63
  -7 -19  -3   45.54    9.26
  -7  19   3   48.34   13.14
   7  19  -3   59.33   44.70
  -7 -19  -3   25.97   38.54
   7 -19  -3   79.14   57.34
  -7 -19   3   50.68   12.59
  -7 -19   3   -1.06   49.03
   7 -19  -3   37.59   11.19
  -7  19  -3   51.99    8.09
  -7  19  -3    8.18   36.99
   7 -19  -3   40.82   33.24
   7  19   3   -1.69   33.99
   9 -19   3   22.17    9.50
   9 -19   3   79.82   57.96
  -9  19   3   33.66   12.12
   9  19  -3  100.18   61.31
  -9 -19  -3  -49.04   56.55
  -9 -19  -3   32.68    8.23
  -9 -19   3   37.51   11.63
   9  19   3   45.25   45.00
  -9 -19   3  -31.87   61.51
   9 -19  -3   23.35   10.74
   9 -19  -3   57.77   70.56
   9 -19  -3   50.81   46.74
   0 -20  -3   12.71    6.88
   0 -20   3   15.95    7.48
   0 -20  -3   21.67   23.36
   0  20   3   13.24    6.35
   0  20  -3   11.27    6.80
   0  20   3   40.93   26.13
   0 -20   3   10.42   21.84
   0  20  -3  -16.22   19.89
   2 -20   3    1.60   20.31
  -2 -20  -3   10.89    6.96
   2  20  -3    8.67   23.69
  -2  20   3   16.16   25.57
   2 -20   3    8.50    7.01
   2  20  -3   20.22    8.50
  -2 -20  -3   13.96   24.15
   2  20   3    9.81    7.72
   2 -20  -3   -2.06   22.74
   2 -20  -3    7.39    6.99
  -2 -20   3   27.23    8.54
   2  20   3   50.08   23.34
  -2 -20   3    3.92   28.67
  -2  20  -3    4.51    5.92
  -2  20  -3    4.63   22.28
  -4  20   3   45.55   33.31
   4 -20   3   22.94    8.00
  -4 -20  -3   -3.12   31.76
   4  20  -3   -8.79   30.21
   4 -20   3   11.10   20.69
  -4 -20  -3    8.41    6.96
  -4  20  -3   40.80   29.05
   4 -20  -3    8.07   24.47
   4 -20  -3    7.74    7.76
   4  20   3   11.02   26.86
  -4  20  -3   20.80    7.25
  -4 -20   3   13.07   30.35
  -4 -20   3    8.92    7.73
  -6 -20  -3   64.98   39.59
   6  20  -3   -5.47   36.05
   6 -20   3   39.39   30.55
   6 -20   3   10.05    7.45
  -6  20   3    9.44    9.22
  -6 -20  -3   10.48    7.42
  -6  20   3  -26.26   41.33
  -6 -20   3   63.79   44.61
  -6  20  -3   15.44    6.35
   6 -20  -3   32.44   32.02
   6 -20  -3   10.83    8.50
   6  20   3   10.95   29.46
  -6  20  -3   11.97   31.49
  -6 -20   3   22.14   10.40
   8  20  -3    6.92   52.81
   8 -20   3  -29.85   47.80
  -8 -20  -3    0.75    5.86
   8 -20   3    8.41    7.96
  -8 -20  -3    0.19    6.58
   8 -20   3  -26.63   33.68
  -8  20   3   -2.79    8.49
  -8 -20   3   23.08   53.33
   8 -20  -3  -18.32   45.09
   8 -20  -3  -39.36   63.27
   8 -20  -3    9.60    9.11
   8  20   3  -30.79   41.96
  -8 -20   3    9.46    9.83
  -1  21   3   32.92   28.58
   1 -21   3   49.89   29.27
  -1 -21  -3   22.85   27.72
   1  21  -3   80.84   34.42
   1  21  -3   76.64   12.42
  -1 -21  -3   55.99   10.02
   1 -21   3   67.85   11.06
   1 -21  -3   88.00   31.43
   1  21   3   89.33   12.23
   1 -21  -3   53.64   10.36
  -1 -21   3   63.05   11.37
  -1  21  -3   40.09   28.68
   1  21   3   53.40   28.38
  -1 -21   3   67.01   31.99
  -1  21  -3   47.74   10.24
  -3  21   3   98.44   39.44
   3 -21   3  100.69   13.17
   3 -21   3   62.77   29.63
   3  21  -3   65.89   34.22
  -3 -21  -3   92.44   37.06
  -3 -21  -3  100.16   12.91
  -3  21  -3  153.84   36.08
   3  21   3  109.42   33.24
  -3  21  -3  117.98   13.02
   3 -21  -3   37.91   30.09
   3 -21  -3  103.00   14.44
  -3 -21   3   99.73   39.82
  -3 -21   3  101.76   14.67
   5 -21   3   78.21   32.92
  -5 -21  -3   43.03    9.27
  -5  21   3   11.82   38.66
  -5 -21  -3   22.54   35.04
   5  21  -3   80.67   41.95
   5 -21   3   41.96    9.84
   5 -21  -3   34.45   10.44
   5 -21  -3   23.90   28.32
   5  21   3   18.59   31.15
  -5  21  -3   55.19    9.33
  -5  21  -3   51.69   31.57
  -5 -21   3    5.37   39.51
  -5 -21   3   59.99   12.52
   7 -21   3   42.91   10.90
  -7  21   3   30.20   11.74
  -7 -21  -3   26.10   43.09
   7  21  -3    3.70   47.21
  -7 -21  -3   61.57   10.98
   7 -21   3  -21.31   33.88
   7  21   3   89.94   44.93
  -7 -21   3   40.30   12.11
  -7  21  -3  -20.57   40.21
  -7  21  -3   44.19    8.52
   7 -21  -3   15.12   41.85
  -7 -21   3   -0.97   51.10
   7 -21  -3   32.39   11.14
   0 -22  -3   10.58    7.45
   0 -22   3   11.61    7.23
   0  22   3  -17.08   26.29
   0 -22  -3   -5.55   26.11
   0 -22   3  -13.93   26.05
   0  22  -3    0.16    6.26
   0  22  -3   -7.39   25.45
   2  22  -3   -4.26   26.49
  -2 -22  -3   66.30   34.60
   2 -22   3  -27.55   26.46
   2 -22   3   13.07    7.92
   2  22  -3   30.10   10.69
  -2  22   3   20.29   30.23
  -2 -22  -3   22.68    8.94
  -2 -22   3   34.23    9.96
   2 -22  -3   24.00    8.43
  -2  22  -3   14.36   25.83
   2 -22  -3    9.98   28.11
  -2  22  -3   34.19    9.19
  -2 -22   3   36.46   34.37
   2  22   3   36.64   31.04
   4 -22   3   12.95    7.94
  -4 -22  -3    1.15   32.81
   4 -22   3    5.75   33.41
   4  22  -3    9.25   36.15
  -4  22   3   19.51   35.19
  -4 -22  -3   22.53    8.60
  -4  22  -3   13.23   33.41
   4  22   3  -10.30   28.66
  -4  22  -3   10.93    7.31
   4 -22  -3   28.53   29.19
  -4 -22   3   13.88    9.08
   4 -22  -3   24.52    9.23
  -4 -22   3   -2.14   36.54
  -6 -22  -3    8.49    7.35
   6  22  -3   32.89   42.96
  -6 -22  -3  -85.19   43.57
  -6  22   3    0.63   44.60
   6 -22   3    0.03    7.01
   6 -22   3   19.32   34.35
  -6  22   3    7.81    8.63
   6 -22  -3   12.10    9.45
  -6 -22   3    8.03    8.96
   6  22   3    5.63   39.43
   6 -22  -3  -15.99   33.60
  -6 -22   3   53.86   48.20
  -6  22  -3    9.48    6.60
  -6  22  -3   17.45   37.98
  -8 -22  -3    1.96    7.18
   8  22  -3  -15.83   58.65
  -8  22   3    8.73   11.49
   8 -22   3    6.80    8.51
  -8 -22  -3    7.42    6.18
  -8 -22  -3   16.56   66.63
   8 -22  -3   62.84   73.16
  -8  22  -3   -0.47    1.32
  -8 -22   3  -35.33   61.94
   8 -22  -3   22.55   48.77
   8 -22  -3    4.83    9.07
  -8  22  -3   -0.72    1.59
   8  22   3  -43.84   48.13
  -8 -22   3    1.96    9.54
  -1 -23  -3   19.43   30.89
  -1 -23  -3   56.91   11.06
  -1  23   3   44.44   34.39
   1  23  -3   65.90   12.61
   1 -23   3   13.23   31.68
   1 -23   3   48.08   10.90
   1  23  -3  105.45   37.88
  -1  23  -3   31.52   32.12
  -1  23  -3   82.17   13.15
   1 -23  -3   46.87   10.93
  -1 -23   3   55.76   12.09
   1 -23  -3   22.98   34.11
  -1 -23   3   55.92   34.58
   1  23   3   21.71   30.33
  -3 -23  -3   33.88   37.58
  -3  23   3    6.54   36.82
   3 -23   3   38.66   10.27
  -3 -23  -3   61.93   11.84
   3  23  -3  108.93   40.27
  -3 -23   3   32.75   35.77
   3 -23  -3   33.50   33.05
  -3  23  -3   42.50   31.43
  -3  23  -3   79.41   11.90
   3 -23  -3   57.81   12.31
  -3 -23   3   81.73   14.47
   3  23   3   72.38   36.95
  -5 -23  -3  -12.81   38.57
   5 -23   3   35.08   31.80
  -5 -23  -3   34.17    9.64
   5 -23   3   40.46   10.91
   5  23  -3   59.20   49.08
  -5  23   3   10.10   45.76
   5  23   3   -8.14   38.18
  -5 -23   3   69.99   13.65
  -5 -23   3   27.33   45.23
  -5  23  -3   38.82   42.60
   5 -23  -3   25.62   10.61
   5 -23  -3   36.09   35.67
  -5  23  -3   55.00   10.57
  -7 -23  -3   -8.84   53.10
   7  23  -3  -14.17   51.36
  -7  23   3   23.12   11.16
   7 -23   3   18.96    9.88
  -7 -23  -3   28.63    9.72
  -7  23  -3   56.77   57.79
  -7 -23   3  -52.76   59.44
   7 -23  -3   28.53   43.64
   7  23   3  136.45   51.74
  -7 -23   3   43.95   13.24
   7 -23  -3   19.82   10.70
   0 -24  -3   15.69    8.69
   0  24  -3   14.12   28.50
   0 -24   3   36.10   39.91
   0  24   3   18.87   32.43
   0  24  -3   15.47    8.92
   0 -24  -3   50.02   35.93
   0 -24   3   15.40    8.91
   2  24  -3   68.08   39.10
  -2  24   3   36.60   38.43
  -2 -24  -3   23.30    9.50
   2 -24   3    7.38    8.12
  -2 -24  -3   -9.37   36.80
  -2 -24   3   14.82   37.79
   2 -24  -3    1.20   30.74
  -2 -24   3   26.38   10.32
  -2  24  -3   15.23    8.61
   2  24   3    8.12   29.24
   2 -24  -3   18.23    9.51
  -2  24  -3   -0.61   33.69
   4 -24   3  -20.71   33.42
   4 -24   3   36.29   10.55
   4  24  -3   33.47   40.02
  -4 -24  -3   20.98    9.20
  -4 -24  -3    6.69   46.67
  -4  24   3  -21.91   41.59
   4  24   3   23.01   34.33
  -4 -24   3   19.45   10.37
   4 -24  -3   47.93   41.93
  -4  24  -3    2.33   35.82
  -4 -24   3   11.39   42.50
   4 -24  -3   15.83    9.07
  -4  24  -3   10.87    8.04
   6 -24   3   -2.80    7.31
   6  24  -3   -5.11   50.94
  -6 -24  -3    2.77    8.01
   6 -24   3   32.26   40.67
  -6 -24  -3  -88.45   49.81
  -6  24   3  -65.79   57.94
  -6 -24   3   10.74   10.00
   6 -24  -3    7.20    9.25
   6  24   3   37.71   46.99
  -6 -24   3   65.12   59.23
  -6  24  -3    6.78    5.94
  -6  24  -3 -114.89   47.25
  -1  25   3   76.59   40.33
  -1 -25  -3   22.94    9.90
   1 -25   3   36.15   10.82
  -1 -25  -3  -10.51   34.68
   1  25  -3   75.90   39.46
  -1  25  -3   28.54   35.14
   1  25   3  -19.75   32.60
   1 -25  -3   41.67   11.47
   1 -25  -3   27.72   34.90
  -1 -25   3   35.58   11.12
  -1  25  -3   34.10   12.33
  -1 -25   3   49.87   40.43
  -3 -25  -3   32.44   10.88
   3 -25   3    4.83   32.95
  -3  25   3  -21.31   41.43
   3 -25   3   39.64   11.19
   3  25  -3    3.94   37.76
  -3 -25  -3  -12.12   40.36
   3 -25  -3   47.32   44.20
  -3 -25   3   42.32   12.32
   3  25   3   46.66   41.50
  -3  25  -3   -8.38   39.69
  -3 -25   3   42.58   45.02
   3 -25  -3   48.93   11.96
  -3  25  -3   71.07   12.27
  -5 -25  -3   22.65    9.95
   5 -25   3   -1.67   40.37
   5  25  -3   56.89   50.77
  -5  25   3   40.53   61.40
  -5 -25  -3  -21.40   59.06
   5 -25   3    7.13    8.87
  -5 -25   3   97.83   64.43
   5  25   3   22.47   39.92
   5 -25  -3   33.79   40.96
  -5 -25   3   26.60   11.41
  -5  25  -3    8.96   50.37
  -5  25  -3   19.23    8.59
   5 -25  -3    6.59    8.93
   0 -26  -3    6.07    8.36
   0 -26  -3   17.93   37.51
   0  26   3   86.97   41.77
   0  26  -3   15.81   36.94
  -2 -26  -3    7.82    9.00
  -2 -26  -3    0.02   42.09
   2 -26   3    0.10   38.97
  -2  26   3   -4.47   41.59
   2  26  -3   21.29   42.17
   2 -26   3    6.69    8.57
  -2  26  -3  -30.25   33.42
   2 -26  -3   33.86   40.80
  -2 -26   3   11.02    9.47
  -2 -26   3   -5.75   49.42
   2  26   3   16.38   37.50
   2 -26  -3    6.79    8.84
  -4  26   3  -43.29   49.44
  -4 -26  -3    8.88   51.62
   4 -26   3   24.28   10.24
   4 -26   3   17.29   36.97
   4  26  -3  -25.77   45.83
  -4 -26  -3   10.90    8.84
   4 -26  -3   11.93    9.59
   4  26   3   63.72   44.22
   4 -26  -3  -36.16   40.54
  -4  26  -3   28.45   42.12
  -4  26  -3   17.70    8.40
  -4 -26   3    7.73    9.92
  -4 -26   3   68.79   55.31
  -6 -26  -3    1.84    8.39
   6 -26   3    5.73    8.78
   6 -26  -3   -6.93    8.21
   1 -27   3   27.49   44.81
  -1 -27  -3    3.39    8.45
  -1 -27  -3  -13.95   41.80
  -1  27   3   12.53   47.64
   1 -27   3   14.05    9.61
   1  27  -3   11.82   38.53
   1  27   3    2.93   43.70
  -1 -27   3    8.68    9.15
   1 -27  -3   51.19   43.63
  -1 -27   3   36.61   51.83
   1 -27  -3   18.66   10.17
  -1  27  -3   15.99   43.72
  -3 -27  -3    5.76    8.87
  -3 -27  -3  -69.00   53.15
  -3  27   3   43.06   53.00
   3  27  -3  111.40   56.47
   3 -27   3   23.70   41.58
   3 -27   3   17.52    9.47
   3 -27  -3  -27.96   40.64
  -3  27  -3   10.65   46.08
   3 -27  -3    6.67    9.29
  -3 -27   3   12.12   10.08
   3  27   3   -8.03   46.16
   5 -27   3   18.44   10.33
  -5 -27  -3   14.20    9.41
   5 -27  -3   18.55   11.34
   0  28   3  -39.49   43.97
   0 -28  -3   21.44   44.21
   0 -28   3   -2.48    8.35
   0 -28   3   68.74   53.23
   0  28  -3   14.55   41.13
   0 -28  -3    7.62    8.82
   2  28  -3   29.27   49.44
   2 -28   3   97.41   54.30
  -2 -28  -3  -39.23   54.72
   2 -28   3    5.79    9.72
  -2 -28  -3    7.25    8.94
  -2  28   3   -3.62   52.13
  -2  28  -3   20.42   49.26
   2 -28  -3   -9.60   51.73
   2  28   3   25.98   44.65
  -2 -28   3   16.99   52.64
  -2 -28   3   14.88   10.28
   2 -28  -3    7.35    9.91
  -4 -28  -3    3.22    8.69
   4 -28   3    3.93    9.07
   4 -28  -3   10.48   10.42
  -1 -29  -3   12.48   53.57
   1 -29   3   10.93    9.76
   1  29  -3   21.13   48.09
  -1 -29  -3    5.71    9.25
  -1  29   3  -47.53   59.93
   1 -29   3   19.12   58.68
  -1 -29   3   67.13   58.16
   1 -29  -3  -74.58   54.34
  -1 -29   3    4.63   10.02
  -1  29  -3  -32.46   48.87
   1 -29  -3    1.77    9.25
   1  29   3  -13.27   48.92
  -3 -29  -3   10.87    9.24
   3 -29   3   12.47   10.03
   3 -29  -3   -3.74    9.14
   0   0   4 1243.62   47.59
   0   0  -4 1280.58   58.23
   2   0  -4 1352.67   72.74
  -2   0   4 1403.28   73.45
   2   0  -4 1379.54   53.97
  -2   0   4 1407.74   52.07
   2   0   4 1459.76   51.31
  -4   0   4  711.25   30.01
   4   0   4  671.35   27.98
   4   0  -4  667.60   53.05
  -4   0   4  740.69   32.28
   4   0  -4  698.74   31.46
  -4   0   4  804.95   57.38
   4   0   4  715.81   28.21
  -6   0   4  656.79   30.00
   6   0  -4  707.26   60.80
   6   0   4  664.38   25.86
  -6   0   4  577.07   58.18
   6   0  -4  627.68   31.30
   6   0   4  665.72   37.27
   6   0   4  674.57   37.35
  -6   0   4  676.92   32.11
   8   0  -4  286.03   54.78
   8   0  -4  306.31   20.65
  -8   0   4  326.06   19.75
   8   0   4  268.24   30.66
  -8   0   4  301.90   20.86
   8   0   4  312.24   34.90
  -8   0   4  243.12   52.55
   8   0   4  297.50   15.56
 -10   0   4  232.09   20.05
  10   0   4  231.54   42.06
 -10   0   4  152.02   55.39
  10   0   4  192.92   36.24
  10   0  -4  236.73   63.18
  -1  -1  -4  359.53   21.31
   1  -1   4  375.21   15.69
  -1   1   4  327.59   16.87
  -1  -1  -4  372.34   19.49
   1   1  -4  336.11   27.14
   1   1  -4  358.44   16.84
  -1   1   4  363.87   15.25
  -1   1  -4  390.81   20.03
  -1  -1   4  348.06   16.93
   1  -1  -4  275.67   25.72
   1  -1  -4  330.11   16.61
  -1  -1   4  408.87   29.89
   1   1   4  332.62   15.64
   3   1  -4  231.42   28.26
  -3   1   4  305.20   32.24
   3  -1   4  271.75   11.43
   3   1  -4  284.24   15.56
  -3   1   4  257.92   13.79
  -3  -1   4  279.73   13.83
  -3  -1   4  260.88   30.10
   3  -1  -4  271.49   15.25
  -3  -1   4  263.46   15.39
   3  -1  -4  292.71   31.19
   5  -1   4   43.64    8.84
   5   1  -4   61.07    8.57
  -5   1   4   39.68    7.17
  -5   1   4   74.43    9.47
  -5   1   4   63.39   26.02
   5  -1   4   49.06    9.95
   5  -1   4   45.29    3.85
  -5  -1  -4   48.81   11.73
   5   1  -4   77.13   24.25
  -5  -1   4   49.63   22.43
   5   1   4   42.96    3.92
  -5  -1   4   53.25    7.39
   5  -1  -4   47.85   22.43
   5   1   4   49.52    4.40
   5  -1  -4   38.78    6.71
   5  -1  -4   67.97    8.61
  -5  -1   4   66.47   10.07
   5   1   4   57.44   10.66
   7  -1   4   39.43    5.71
   7  -1   4   34.80   13.53
   7   1  -4   60.53   27.42
  -7  -1  -4   44.55   17.07
  -7   1   4   31.54    7.83
   7  -1   4   19.96   13.20
  -7   1   4   40.68   26.37
  -7   1   4   35.49    7.96
   7   1  -4   33.23    7.85
   7   1   4   33.69    4.94
   7  -1  -4   58.21   26.92
   7  -1  -4   20.12    6.87
  -7  -1   4   42.15    8.19
  -7  -1   4   39.21   28.51
   7   1   4   31.45   14.44
   7   1   4   30.05    5.32
  -7  -1   4   28.72    7.94
   9  -1   4   59.33   25.02
   9  -1   4   39.61   20.61
   9   1  -4   73.18   43.28
   9  -1   4   52.72    8.17
  -9   1   4   58.91   12.45
  -9   1   4   50.76   43.24
   9   1  -4   65.42   12.49
   9   1   4   64.60   26.32
  -9  -1   4   31.88    9.70
   9  -1  -4   81.28   14.00
  -9  -1   4   41.60   37.62
   9  -1  -4   92.91   42.61
   9   1   4   63.65    7.41
  11  -1   4   14.10   28.17
  11  -1   4   62.68   41.86
 -11   1   4   15.60    9.52
  11   1  -4  -65.66   48.57
  11   1   4   23.15   38.54
  11   1   4   20.40   30.58
  11  -1  -4  -30.74   50.24
 -11  -1   4   11.28   57.30
 -11  -1   4    6.81    8.13
   0   2  -4 3069.21  122.25
   0  -2  -4 3236.66  126.11
   0  -2  -4 3177.89  122.22
   0  -2   4 3105.81  123.84
   2   2  -4 1591.71   61.16
   2   2  -4 1611.98   79.96
  -2   2   4 1585.23   59.32
  -2   2   4 1623.71   61.64
   2  -2   4 1575.76   57.71
  -2  -2  -4 1690.50   62.17
  -2  -2   4 1684.05   82.26
   2  -2  -4 1593.24   58.81
   2  -2  -4 1657.72   82.53
   2  -2  -4 1600.89   61.17
   2   2   4 1537.26   61.72
  -2  -2   4 1644.05   61.44
   4   2  -4  813.94   36.19
   4   2  -4  918.55   61.47
  -4   2   4  836.17   36.58
  -4   2   4  860.78   62.10
  -4   2   4  796.94   34.39
  -4  -2  -4  904.66   39.68
  -4  -2   4  902.28   62.04
   4   2   4  841.08   30.48
  -4  -2   4  917.33   37.03
   4  -2  -4  739.57   58.08
   4  -2  -4  803.59   35.80
   4   2   4  788.93   30.12
   4  -2  -4  851.69   34.35
   4   2   4  843.13   36.88
  -4  -2   4  842.88   34.38
  -6  -2  -4  568.67   38.85
   6  -2   4  625.88   24.28
   6   2  -4  559.47   55.63
  -6   2   4  628.77   28.53
   6  -2   4  611.51   36.04
   6   2  -4  635.61   30.61
  -6   2   4  618.90   30.48
  -6   2   4  574.74   57.28
   6  -2   4  561.05   33.41
   6   2   4  604.24   24.35
   6   2   4  678.15   37.47
   6  -2  -4  627.21   58.82
   6   2   4  578.71   24.46
  -6  -2   4  690.44   61.35
  -6  -2   4  634.57   28.68
   6  -2  -4  606.43   29.82
  -6  -2   4  616.91   30.36
   6  -2  -4  616.57   28.27
  -8   2   4  282.27   19.86
  -8   2   4  296.36   18.43
  -8  -2  -4  256.73   36.77
   8   2  -4  250.73   19.47
   8  -2   4  264.61   29.49
   8  -2   4  266.16   34.29
   8  -2   4  243.10   14.02
   8   2  -4  420.36   66.33
  -8  -2   4  245.95   19.07
   8  -2  -4  261.05   51.42
   8   2   4  260.42   13.58
  -8  -2   4  244.37   17.57
   8   2   4  271.56   33.58
  -8  -2   4  275.94   54.43
   8  -2  -4  244.92   17.33
   8  -2  -4  228.53   18.30
 -10   2   4  213.05   19.57
  10  -2   4  131.32   32.04
  10   2  -4  164.02   54.96
  10  -2   4  224.36   15.23
  10  -2   4  194.52   37.75
  10   2   4  194.90   40.94
 -10  -2   4  251.42   20.53
  10   2   4  234.82   13.50
  10  -2  -4  182.10   49.19
  10  -2  -4  225.98   65.08
 -10  -2   4  205.96   59.50
   1  -3   4   32.08    7.71
   1   3  -4   32.34    5.36
  -1   3   4   21.91    4.46
  -1   3   4   31.07    4.40
  -1  -3  -4   31.53    7.68
   1  -3   4   37.42    4.70
   1   3  -4   16.96    9.22
   1  -3  -4   31.58   12.44
  -1  -3   4   39.40    6.00
   1  -3  -4   34.96    4.04
   1  -3  -4   24.84   10.71
   1   3   4   27.86    2.93
  -1  -3   4   32.38   10.99
  -1   3  -4   35.69    4.62
  -1   3  -4   38.40    7.73
   1   3   4   39.39    8.96
   3   3  -4   78.82   20.41
  -3   3   4   86.07    8.39
  -3   3   4   69.31    6.72
   3   3  -4   90.84    8.39
  -3  -3  -4   94.75   11.74
  -3  -3   4   78.71   21.29
  -3  -3   4   78.17    8.06
   3  -3  -4  137.14   27.00
   3  -3  -4   77.74    7.76
   3   3   4   96.18    9.69
   3   3   4   77.12    4.24
   3  -3  -4   83.03    6.95
  -3  -3   4   70.65    6.69
   3  -3  -4   76.01   20.60
  -5   3   4   11.15    5.57
   5   3  -4   14.35   16.25
  -5  -3  -4   -3.08    9.60
   5  -3   4   12.85    6.04
   5  -3   4    5.71    2.21
  -5   3   4    8.54    4.33
   5   3  -4   11.36    5.34
   5  -3   4   11.74    7.84
   5  -3  -4    9.90    5.01
  -5  -3   4   -4.51   15.54
  -5  -3   4    8.92    4.36
   5   3   4    6.97    3.26
   5   3   4   10.58    3.39
   5  -3  -4   18.00    5.35
   5  -3  -4    6.64   17.56
  -5  -3   4    6.35    5.01
   5   3   4    3.18    8.06
   7  -3   4   35.75   15.12
   7   3  -4    1.98    5.05
   7  -3   4    2.88   10.51
  -7  -3  -4   -1.31   14.82
  -7   3   4    5.41    5.89
  -7   3   4   14.66    6.27
   7   3  -4    1.18   23.66
   7  -3   4   12.56    4.21
   7  -3  -4   10.62    6.24
   7   3   4   16.24    4.60
  -7  -3   4    8.57    6.52
   7   3   4    4.11   14.49
   7  -3  -4   15.91    6.22
  -7  -3   4   15.78    6.04
   7  -3  -4   21.72   25.03
  -7  -3   4   -4.26   22.97
  -9   3   4   31.07    9.80
   9  -3   4   28.13   19.51
  -9  -3  -4    2.85   25.77
   9   3  -4   28.11   16.66
   9  -3   4   18.78   23.35
   9  -3   4   38.38    7.32
   9   3  -4    2.27   34.02
   9   3   4   42.92   26.72
  -9  -3   4   26.13    8.90
   9   3   4   45.91    7.45
   9  -3  -4   23.37    8.01
   9  -3  -4   51.68   37.24
   9  -3  -4   50.65   11.04
   9  -3  -4   28.87   41.62
  -9  -3   4   22.28   36.18
  11   3  -4    3.08   59.94
 -11   3   4   -0.62    7.35
  11  -3   4   -9.94   36.75
  11  -3   4   15.48   27.49
  11  -3   4    7.18    6.20
 -11  -3   4  -59.93   50.30
  11  -3  -4   86.62   52.04
  11   3   4   10.79    5.50
  11  -3  -4  -16.45   50.65
  11   3   4   -1.26   38.49
 -11  -3   4    8.73    9.49
   0  -4  -4 2343.02   93.95
   0   4  -4 2224.96   93.40
   0  -4   4 2299.31   95.93
   0   4   4 2276.55   95.88
   2  -4   4 1857.99   73.52
   2   4  -4 1890.98   90.94
  -2   4   4 1982.88   70.85
  -2   4   4 1995.70   73.18
   2  -4   4 1927.62   68.50
   2   4  -4 1877.00   72.46
  -2  -4  -4 1850.91   77.66
  -2   4  -4 1944.09   72.59
  -2  -4   4 1961.46   72.53
   2  -4  -4 1825.02   89.18
   2   4   4 1951.78   68.07
   2  -4  -4 1988.59   70.44
   2  -4  -4 1941.39   95.46
  -2  -4   4 2041.21   95.10
   2   4   4 1981.92   77.49
   4   4  -4  877.62   38.63
  -4   4   4  878.35   36.70
   4  -4   4  894.27   32.23
   4  -4   4  879.39   39.42
   4   4  -4  874.80   60.86
  -4  -4  -4  899.22   45.00
   4  -4   4  933.81   38.23
  -4   4   4  818.02   38.22
   4  -4  -4 1046.94   37.47
   4  -4  -4  907.96   64.07
  -4  -4   4  850.46   62.36
   4  -4  -4  855.21   58.78
  -4  -4   4  883.32   38.56
   4   4   4  905.53   33.59
  -4  -4   4  905.11   36.52
   4   4   4  908.45   43.20
  -6   4   4  538.27   28.47
   6  -4   4  586.91   36.31
   6   4  -4  574.54   55.91
  -6  -4  -4  553.20   39.82
   6   4  -4  532.63   28.45
   6  -4   4  545.06   31.76
   6  -4   4  549.85   22.47
  -6   4   4  521.83   26.29
   6  -4  -4  606.91   60.15
   6  -4  -4  566.03   52.57
  -6  -4   4  583.89   28.95
   6   4   4  573.59   36.59
   6   4   4  535.21   23.69
  -6  -4   4  631.01   59.62
  -6  -4   4  570.74   26.82
   6  -4  -4  588.95   26.99
   6  -4  -4  544.54   27.86
   8   4  -4  232.14   18.56
   8   4  -4  280.09   51.60
   8  -4   4  246.30   33.99
  -8   4   4  228.84   16.27
  -8  -4  -4  260.53   37.81
   8  -4   4  216.78   13.21
  -8   4   4  217.41   17.90
   8  -4   4  267.97   28.71
  -8  -4   4  238.33   16.84
  -8  -4   4  205.40   17.80
   8   4   4  226.52   32.77
   8   4   4  209.29   13.36
   8  -4  -4  255.97   52.11
  -8  -4   4  206.61   49.08
   8  -4  -4  253.41   18.27
   8  -4  -4  226.92   44.30
   8  -4  -4  201.45   16.24
  10  -4   4  186.24   38.81
  10  -4   4  165.73   33.10
 -10   4   4  192.71   19.05
  10  -4   4  163.96   13.64
  10   4  -4  204.96   57.77
 -10  -4  -4  234.45   46.84
  10  -4  -4  179.14   55.97
 -10  -4   4  169.39   64.21
  10   4   4  143.24   37.70
  10  -4  -4  215.07   17.63
 -10  -4   4  216.56   19.66
  10   4   4  209.89   13.80
  10  -4  -4  261.31   54.75
   1  -5   4  123.04   13.70
   1  -5   4   95.62    6.48
  -1   5   4   99.82    7.04
  -1   5   4   99.52    8.37
   1   5  -4   93.56   17.78
  -1  -5  -4  112.30    5.01
  -1  -5  -4  110.66   13.60
   1   5  -4   96.17    7.88
  -1  -5   4  104.98    7.99
   1   5   4  106.12    6.17
  -1   5  -4  109.80   14.08
   1   5   4  112.65   16.16
  -1  -5   4   70.26   17.37
   1  -5  -4  108.80    6.88
  -1   5  -4   98.39    6.72
   3   5  -4   32.11   15.82
  -3   5   4   46.96    6.56
  -3   5   4   50.66    8.49
   3   5  -4   30.09    5.96
   3  -5   4   43.60    8.16
  -3  -5  -4   49.68   11.38
   3   5   4   38.51    4.01
   3  -5  -4   49.52   17.14
  -3  -5   4   36.96    6.76
   3  -5  -4   44.02   17.14
   3   5   4   25.66    8.52
  -3  -5   4   42.57   18.02
   3  -5  -4   45.21    6.41
  -3   5  -4   43.92    8.21
  -5  -5  -4    8.48   11.34
   5   5  -4   13.65    5.33
   5  -5   4    3.27    8.71
   5  -5   4   14.33    3.16
  -5   5   4   24.48    5.77
  -5   5   4   18.58    6.70
   5   5  -4   17.50   18.67
   5  -5   4   11.98    7.67
   5   5   4   21.50   10.88
   5  -5  -4    9.96    4.96
   5   5   4   12.46    4.23
  -5  -5   4   31.71   19.09
  -5  -5   4   12.28    5.04
   5  -5  -4   32.59   18.34
   5   5   4   17.10    4.36
  -5  -5   4   26.02    5.93
   5  -5  -4   47.34   22.90
  -7   5   4   23.10    7.07
  -7   5   4   21.71    7.37
  -7  -5  -4    7.54   15.83
   7  -5   4   12.67   11.65
   7   5  -4   16.17    6.52
   7  -5   4   -1.50   14.74
   7  -5   4   16.98    4.59
   7   5  -4   29.97   25.94
  -7  -5   4  -32.01   24.02
  -7  -5   4   24.08    7.07
   7  -5  -4   -6.44   25.57
  -7  -5   4   16.76    7.47
   7  -5  -4   23.18   23.48
   7   5   4   20.32   16.63
   7  -5  -4   15.18    6.49
   7   5   4   21.73    5.62
   9  -5   4   34.79   25.98
  -9  -5  -4   25.83   26.67
  -9   5   4   32.64   10.10
   9   5  -4   31.77   37.39
   9  -5   4   31.23    7.03
   9  -5   4   13.79   17.92
   9   5   4   33.91    7.34
   9  -5  -4   35.78   38.76
   9  -5  -4   22.16   37.44
  -9  -5   4   77.98   43.41
  -9  -5   4   24.94    8.90
   9   5   4   18.14   25.75
   9  -5  -4   33.82    8.98
 -11  -5  -4   13.91   40.25
  11  -5   4    1.23   27.96
  11  -5   4    4.52    5.87
  11   5  -4   11.85   55.34
  11  -5   4  -40.59   37.91
 -11   5   4    3.98    7.76
  11  -5  -4   65.71   63.10
  11  -5  -4   16.60    9.34
  11   5   4    8.94   40.72
 -11  -5   4   16.67    9.77
  11   5   4   11.79    6.43
  11  -5  -4   82.34   51.42
 -11  -5   4  -43.59   53.17
   0  -6   4 1733.07   64.08
   0  -6   4 1611.71   77.62
   0   6   4 1759.68   63.17
   0   6   4 1860.63   80.69
   0  -6  -4 1751.53   62.55
   0  -6  -4 1708.68   76.36
   0   6  -4 1749.86   64.47
   0   6  -4 1755.36   77.00
   2   6  -4 1086.47   60.59
   2  -6   4 1094.00   38.39
  -2  -6  -4  917.54   50.19
   2  -6   4 1061.37   48.00
   2   6  -4 1051.63   42.46
  -2   6   4 1083.83   43.07
  -2   6   4 1066.55   40.73
  -2   6  -4 1076.03   46.67
   2   6   4 1009.78   38.49
  -2  -6   4  989.19   61.60
   2   6   4  965.92   48.98
  -2  -6   4 1067.13   42.31
   2  -6  -4 1067.75   40.54
  -2   6  -4 1057.17   38.64
   2  -6  -4 1056.36   59.14
   4   6  -4  710.64   33.37
  -4   6   4  773.10   33.97
   4  -6   4  756.20   36.99
  -4  -6  -4  841.29   44.66
   4   6  -4  734.18   55.61
   4  -6   4  708.86   27.79
  -4   6   4  733.39   31.55
   4  -6  -4  773.45   54.00
   4   6   4  769.53   41.42
   4  -6  -4  648.00   55.98
   4   6   4  762.70   29.37
  -4  -6   4  715.92   33.25
   4  -6  -4  722.65   31.57
  -4  -6   4  742.63   57.81
   6   6  -4  560.58   29.70
  -6   6   4  612.74   30.18
   6  -6   4  618.56   34.60
   6   6  -4  599.36   58.44
   6  -6   4  625.13   40.06
  -6  -6  -4  580.19   43.82
  -6   6   4  554.38   27.40
   6  -6   4  571.97   23.69
   6   6   4  579.41   40.14
   6  -6  -4  574.07   59.60
   6   6   4  559.65   25.63
  -6  -6   4  625.29   30.26
   6  -6  -4  614.12   28.37
  -6  -6   4  483.23   55.53
   6  -6  -4  516.00   51.94
  -6  -6   4  560.46   27.34
   8  -6   4  158.80   11.34
   8  -6   4  113.97   23.38
  -8   6   4  140.63   15.63
  -8   6   4  171.13   14.06
   8   6  -4  248.67   50.33
   8  -6   4  187.43   32.23
   8   6  -4  192.23   17.40
  -8  -6  -4  116.73   32.34
  -8  -6   4  160.16   49.54
   8   6   4  131.42   28.02
  -8  -6   4  174.43   16.32
   8  -6  -4  153.17   14.07
   8  -6  -4   91.90   39.08
   8   6   4  160.34   12.06
   8  -6  -4  121.09   39.24
  -8  -6   4  177.63   14.75
  10  -6   4  188.81   41.62
  10   6  -4  205.00   61.11
  10  -6   4  159.96   13.43
 -10   6   4  185.08   18.64
  10  -6   4  131.04   29.61
 -10  -6  -4  103.90   40.76
  10   6   4  187.24   14.34
  10  -6  -4   31.00   39.92
  10  -6  -4  178.52   16.80
 -10  -6   4  191.61   19.20
  10   6   4  217.80   41.95
 -10  -6   4   86.20   61.33
  10  -6  -4  148.03   58.66
  -1   7   4  289.43   14.24
  -1  -7  -4  313.65   12.95
  -1   7   4  367.09   30.71
   1  -7   4  289.47   13.67
  -1  -7  -4  327.25   25.06
   1   7  -4  266.27   26.12
   1  -7   4  293.41   23.64
   1   7  -4  285.00   15.45
  -1   7  -4  321.20   23.58
   1  -7  -4  294.49   14.22
  -1  -7   4  290.14   27.65
  -1   7  -4  298.85   14.11
   1   7   4  292.60   24.84
  -1  -7   4  309.08   15.47
   1   7   4  289.09   13.42
   1  -7  -4  292.41   25.86
  -3   7   4   81.44    7.61
  -3  -7  -4   65.98   15.37
  -3   7   4   76.14    8.48
   3  -7   4   94.36   14.07
   3  -7   4   82.48    5.73
   3   7  -4   98.07   24.14
   3   7  -4   82.88    8.53
   3  -7  -4   98.35   21.68
   3   7   4   74.82    6.11
  -3  -7   4   81.06   23.53
   3  -7  -4  108.48   25.38
   3   7   4   81.29   15.16
  -3  -7   4   63.98    8.44
   3  -7  -4   85.07    7.71
  -3   7  -4   62.94   12.02
   5  -7   4   55.96   15.29
   5   7  -4   55.98    9.11
  -5   7   4   63.62    8.71
   5  -7   4   71.49   13.53
   5  -7   4   64.49    6.25
   5   7  -4   45.18   24.31
  -5  -7  -4   72.29   18.80
  -5   7   4   47.09    8.46
  -5  -7   4   62.45    8.53
  -5  -7   4   50.50   25.07
   5   7   4   54.67    7.95
  -5  -7   4   50.01    8.80
   5  -7  -4   28.32   22.12
   5   7   4   63.09    7.60
   5  -7  -4   44.48    8.13
   5  -7  -4   73.03   24.21
   5   7   4   37.17   14.53
   7   7  -4   32.17    9.32
  -7  -7  -4   16.93   17.84
   7   7  -4   48.12   32.78
   7  -7   4   30.41   13.70
  -7   7   4   50.42   11.15
   7  -7   4   35.47   18.81
   7  -7   4   33.04    5.85
  -7   7   4   35.38    7.93
  -7  -7   4   25.91   27.28
  -7  -7   4   41.16    8.55
   7   7   4   24.55   17.28
   7  -7  -4   41.17    8.81
   7  -7  -4    7.61   26.72
  -7  -7   4   48.75   10.45
   7   7   4   43.60    7.89
   7  -7  -4   25.94   26.12
   9  -7   4    7.46   26.03
  -9  -7  -4    4.21   29.24
   9  -7   4   15.25   18.16
   9  -7   4   20.71    6.45
  -9   7   4   21.96    9.15
   9   7  -4   29.35   38.75
   9  -7  -4   18.36    8.13
   9  -7  -4   -2.65   38.62
   9   7   4   47.20    8.49
  -9  -7   4   11.66    8.46
  -9  -7   4   35.32   44.96
   9  -7  -4   21.45   35.10
   9   7   4    8.38   26.64
 -11   7   4   18.60    9.67
  11  -7   4   29.06   43.23
  11  -7   4    4.29    6.31
 -11  -7  -4   41.14   42.90
  11   7  -4   80.12   61.32
 -11  -7   4   19.63    9.63
  11   7   4    1.87   42.20
 -11  -7   4  -91.71   52.94
  11   7   4   13.97    7.30
  11  -7  -4   80.05   59.44
  11  -7  -4  -57.65   41.11
  11  -7  -4   21.66    8.84
   0   8   4 1734.95   63.00
   0   8  -4 1686.14   64.00
   0   8  -4 1682.21   78.57
   0  -8   4 1759.68   63.76
   0   8   4 1716.24   82.15
   0  -8   4 1787.85   81.82
   0  -8  -4 1667.24   62.45
  -2  -8  -4  810.31   47.66
   2   8  -4  839.06   35.93
   2  -8   4  928.64   46.08
   2  -8   4  867.68   32.63
   2   8  -4  805.23   53.35
  -2  -8  -4  833.92   31.40
  -2   8   4  847.66   55.58
  -2   8   4  853.56   34.26
  -2  -8   4  870.88   35.78
  -2  -8   4  880.73   56.50
   2   8   4  836.21   46.37
   2  -8  -4  873.77   34.39
   2  -8  -4  746.98   50.07
  -2   8  -4  868.45   32.51
  -2   8  -4  790.78   42.61
   2   8   4  857.57   32.84
   4   8  -4  450.80   23.80
  -4  -8  -4  508.94   36.52
  -4   8   4  465.47   24.04
   4  -8   4  469.47   19.09
   4  -8   4  450.82   30.19
   4   8  -4  419.70   44.68
  -4   8   4  398.91   21.15
  -4   8  -4  405.19   29.93
   4  -8  -4  471.31   22.30
  -4  -8   4  465.77   23.68
   4   8   4  462.04   20.45
  -4  -8   4  396.59   43.49
   4  -8  -4  485.03   42.91
   4  -8  -4  371.76   44.79
   4   8   4  492.87   34.62
  -6   8   4  428.42   22.96
   6  -8   4  453.99   19.81
   6  -8   4  479.69   38.38
   6   8  -4  553.77   54.72
   6   8  -4  430.94   25.30
  -6   8   4  458.26   25.55
  -6  -8  -4  458.25   40.81
   6  -8   4  438.48   31.45
  -6  -8   4  414.19   22.78
   6  -8  -4  413.87   23.14
   6   8   4  433.84   21.97
   6   8   4  460.45   38.59
  -6  -8   4  441.73   25.18
   6  -8  -4  412.51   60.44
   6  -8  -4  542.22   50.62
  -6  -8   4  407.46   51.52
   8  -8   4  161.62   31.24
   8   8  -4  177.78   19.55
  -8  -8  -4  204.95   38.85
   8  -8   4  123.09   22.88
  -8   8   4  172.42   17.05
   8   8  -4  195.08   51.16
   8  -8   4  191.78   12.77
  -8   8   4  212.79   15.84
  -8  -8   4   91.14   40.53
  -8  -8   4  200.06   17.58
   8   8   4  176.56   13.70
  -8  -8   4  200.62   17.71
   8  -8  -4  143.67   46.54
   8  -8  -4  186.57   15.83
   8   8   4  224.96   34.45
   8  -8  -4  196.33   42.78
  10  -8   4  146.51   13.75
  10  -8   4  157.46   39.66
  10  -8   4  100.95   28.90
 -10  -8  -4  131.22   46.22
  10   8  -4  209.50   59.48
 -10   8   4  157.21   20.17
  10  -8  -4  121.05   16.25
  10  -8  -4  108.87   56.90
  10   8   4  107.02   37.55
 -10  -8   4  169.33   18.31
  10  -8  -4  199.17   61.39
  10   8   4  153.75   14.30
 -10  -8   4   -0.57   50.53
   1  -9   4  191.91   21.38
   1   9  -4  160.47   10.95
   1  -9   4  154.86    9.29
  -1   9   4  183.33   27.99
   1   9  -4  201.66   28.54
  -1  -9  -4  173.51   21.80
  -1  -9  -4  152.05    8.84
  -1   9   4  142.98    9.71
   1  -9   4  155.59    9.57
   1  -9  -4  147.32    9.76
  -1   9  -4  155.44    9.59
   1   9   4  129.33   21.81
  -1   9  -4  176.67   20.58
   1  -9  -4  161.04   23.65
  -1  -9   4  170.20   10.93
   1   9   4  147.25    9.27
  -1  -9   4  233.28   25.93
  -3   9   4   84.15    9.23
   3  -9   4   72.82    6.46
   3  -9   4   75.64   15.71
  -3  -9  -4  102.27   20.57
  -3   9   4   77.52   10.61
   3   9  -4   90.26   23.48
   3   9  -4   72.81    8.39
  -3  -9  -4   85.40    5.48
  -3  -9   4   76.08    9.71
  -3  -9   4   87.04   25.55
   3  -9  -4   96.28   23.08
   3   9   4   72.92    6.96
   3  -9  -4   84.32    9.66
  -3   9  -4   75.89    5.31
  -3   9  -4   72.43   14.60
   3   9   4  107.72   19.65
   5  -9   4   53.54    6.47
  -5   9   4   68.89    9.56
   5   9  -4   66.11   10.71
   5   9  -4   57.79   25.64
  -5   9   4   79.24   12.31
   5  -9   4   65.25   15.32
  -5  -9  -4   50.16   19.62
   5  -9  -4   64.32   23.95
  -5  -9   4   69.19    9.82
   5  -9  -4   58.61    9.27
   5   9   4   66.60    8.67
   5   9   4   83.44   18.60
  -5  -9   4   19.58   21.26
   5  -9  -4   25.66   22.50
   5   9   4   53.45    7.94
   7   9  -4    2.37   25.37
   7  -9   4   29.61   18.99
   7   9  -4    9.89    7.02
  -7   9   4   17.10    7.01
   7  -9   4   20.79    5.59
  -7  -9  -4   29.32   22.91
  -7   9   4   27.60    9.26
   7  -9   4   -2.10   12.07
   7  -9  -4   19.96    7.26
   7  -9  -4   26.85   25.22
   7   9   4    2.11   16.95
   7   9   4   13.85    6.03
  -7  -9   4   30.84   28.65
  -7  -9   4   20.26    8.03
   7  -9  -4   35.65   29.45
  -7  -9   4   17.26    6.55
  -9  -9  -4   -4.52   30.43
   9   9  -4   42.87   45.73
   9  -9   4   37.38   28.02
  -9   9   4   10.40    8.88
   9  -9   4   25.22    6.94
   9  -9   4   16.56   19.51
  -9  -9   4   27.27   10.54
   9  -9  -4   14.18   42.74
   9  -9  -4    7.83    7.55
  -9  -9   4   25.98   40.55
   9  -9  -4  -34.66   33.68
   9   9   4   52.40   28.12
   9   9   4   15.72    6.84
 -11  -9  -4   19.64   46.47
  11  -9   4   58.72   48.07
  11  -9   4   10.28    7.00
  11   9  -4   19.78   60.38
 -11   9   4    3.46    8.53
  11   9   4    9.45    7.65
  11  -9  -4   25.70   10.23
  11   9   4   57.55   42.56
 -11  -9   4  -16.91   66.34
  11  -9  -4   15.67   45.09
  11  -9  -4   34.25   62.38
 -11  -9   4   14.54   10.32
   0  10  -4 1618.09   78.32
   0 -10   4 1633.98   80.93
   0  10  -4 1605.51   60.91
   0 -10  -4 1443.46   76.72
   0 -10  -4 1637.65   59.65
   0 -10   4 1605.90   60.37
   0  10   4 1710.66   82.68
   0  10   4 1579.21   59.66
  -2  10   4  648.03   28.57
   2 -10   4  656.05   27.47
  -2 -10  -4  661.75   26.69
   2 -10   4  654.90   42.09
   2  10  -4  702.67   49.24
  -2  10   4  696.73   51.14
   2  10  -4  665.83   30.50
  -2 -10  -4  665.59   45.44
   2  10   4  632.84   27.65
  -2  10  -4  671.35   27.24
   2  10   4  673.89   43.44
   2 -10  -4  692.69   47.12
   2 -10  -4  693.72   29.07
  -2 -10   4  683.04   51.70
  -2  10  -4  682.47   40.58
  -2 -10   4  762.23   30.74
  -4 -10  -4  314.95   13.44
   4  10  -4  367.29   48.66
   4 -10   4  333.58   15.15
  -4 -10  -4  278.04   31.51
  -4  10   4  294.67   16.90
   4 -10   4  299.47   27.51
   4  10  -4  273.84   18.32
  -4  10  -4  332.91   29.10
  -4 -10   4  394.44   42.91
  -4 -10   4  296.37   18.69
   4 -10  -4  322.49   37.16
   4  10   4  307.13   30.10
   4 -10  -4  294.07   17.36
   4 -10  -4  271.87   46.12
   4  10   4  303.14   16.39
  -6 -10  -4  478.29   46.69
   6 -10   4  436.77   34.85
   6 -10   4  433.45   20.69
  -6  10   4  464.03   23.80
  -6  10   4  461.92   26.26
   6  10  -4  418.56   25.84
   6 -10   4  475.66   42.15
   6  10  -4  406.69   50.10
   6  10   4  414.64   40.03
   6  10   4  449.95   23.45
  -6 -10   4  487.34   26.41
   6  10   4  484.70   23.45
  -6 -10   4  401.65   61.07
   6 -10  -4  559.17   61.82
  -6 -10   4  424.48   23.34
   6 -10  -4  378.73   45.81
   6 -10  -4  468.77   24.53
   8 -10   4  130.40   33.38
  -8 -10  -4  180.84   39.42
   8  10  -4  173.82   47.07
  -8  10   4  161.89   16.83
   8 -10   4  161.49   12.36
   8  10   4  114.74   29.48
  -8 -10   4  177.77   17.12
   8 -10  -4  101.82   37.61
  -8 -10   4  179.47   48.72
   8 -10  -4   67.82   45.33
   8  10   4  167.68   13.98
   8 -10  -4  153.45   14.99
  10  10  -4   67.74   52.78
  10 -10   4   84.69   27.95
 -10 -10  -4   65.64   43.47
  10 -10   4  130.87   13.20
 -10  10   4  118.23   18.60
  10 -10   4   80.70   38.82
  10 -10  -4  128.14   62.94
  10 -10  -4  110.13   16.32
  10  10   4  120.90   15.05
 -10 -10   4  103.17   16.71
 -10 -10   4  205.15   66.56
  10  10   4   48.17   34.43
  -1  11   4   85.72    7.93
   1 -11   4   80.83    7.83
  -1  11   4   98.17   22.74
   1  11  -4   86.95    8.65
   1  11  -4  123.01   23.96
  -1 -11  -4   98.32    7.66
   1 -11   4   75.62   19.08
   1  11   4   95.36   20.68
   1 -11  -4   99.14   21.16
  -1  11  -4   80.02    7.43
   1 -11  -4  108.01    8.60
  -1 -11   4   84.41    8.41
   1  11   4   98.53    7.97
  -1 -11   4   65.97   19.60
  -1  11  -4   57.80   16.37
   3  11  -4   38.69   19.44
  -3 -11  -4   19.38    4.26
   3  11  -4   19.42    5.73
  -3  11   4   34.34   20.58
   3 -11   4   31.19    5.60
   3 -11   4   15.44   11.39
  -3  11   4   25.59    5.86
  -3 -11  -4   14.33   15.63
   3 -11  -4   17.22    5.37
  -3 -11   4   23.94    6.32
   3  11   4   21.21    5.29
  -3  11  -4   -1.61   11.08
   3  11   4   14.01   12.10
  -3 -11   4   13.37   17.45
   3 -11  -4   37.08   17.15
  -3  11  -4   25.41    4.29
  -5  11   4   46.33   10.10
  -5 -11  -4   58.12   21.56
   5  11  -4   80.05   29.52
  -5  11   4   39.96    7.64
   5 -11   4   56.20    7.22
   5 -11   4   29.32   13.64
  -5 -11  -4   53.27    5.58
   5  11  -4   44.64   10.27
  -5 -11  -4   51.00    5.11
   5 -11  -4   56.63    9.71
  -5  11  -4   30.71   17.02
   5 -11  -4   60.10   24.76
   5  11   4   45.90   18.48
   5  11   4   50.92    9.20
   5  11   4   40.50    7.89
   5 -11  -4   51.53   29.49
  -5 -11   4   33.45   25.80
  -5 -11   4   44.46    9.69
   7 -11   4   25.71    6.22
   7 -11   4   20.05   22.07
  -7 -11  -4   32.39   26.00
  -7  11   4   31.01    7.76
   7  11  -4   76.64   38.62
   7  11  -4   66.16   13.08
  -7  11   4   17.71    7.70
   7 -11  -4   61.19   33.71
   7 -11  -4   42.57   26.74
   7 -11  -4   30.92    8.47
   7  11   4   21.15    7.16
   7  11   4   20.49   20.98
  -7 -11   4   30.74    9.63
  -7 -11   4   40.59    9.08
  -7 -11   4   11.15   29.78
   9  11  -4    8.37   42.66
  -9  11   4   21.74   10.27
   9 -11   4   21.19   22.13
  -9 -11  -4  -15.33   33.52
   9 -11   4   10.36   31.85
   9 -11   4   12.33    6.70
   9 -11  -4    7.94    7.85
   9  11   4    8.36    6.56
   9 -11  -4  -20.14   34.70
  -9 -11   4   13.47    8.80
   9  11   4   17.59   27.67
  -9 -11   4   41.50   44.23
   9 -11  -4   -5.62   44.65
  11 -11   4   17.76    7.65
  11 -11  -4    4.21    8.15
   0 -12  -4  632.26   45.33
   0 -12   4  669.49   28.81
   0 -12   4  657.02   28.93
   0 -12   4  625.89   47.81
   0  12   4  770.51   50.82
   0 -12  -4  674.12   28.28
   0  12  -4  643.57   45.47
   0  12   4  638.10   28.07
   0  12  -4  655.31   29.19
  -2 -12  -4  456.77   39.75
   2 -12   4  460.35   20.56
   2  12  -4  430.10   40.28
  -2  12   4  433.06   42.82
   2 -12   4  429.22   35.93
  -2 -12  -4  440.05   19.68
  -2  12   4  431.07   20.98
   2  12  -4  415.67   22.56
  -2  12  -4  447.02   20.06
   2  12   4  432.74   20.68
   2 -12  -4  463.38   39.12
  -2 -12   4  432.97   42.09
   2 -12  -4  458.40   21.81
  -2  12  -4  375.13   32.89
   2  12   4  405.47   36.29
  -2 -12   4  427.85   22.25
  -4  12   4  415.06   21.40
  -4  12   4  433.74   24.30
   4 -12   4  418.21   19.81
   4 -12   4  422.05   35.49
  -4 -12  -4  413.26   18.59
   4  12  -4  398.34   23.82
  -4 -12  -4  400.82   41.08
   4  12  -4  425.46   46.23
  -4  12   4  413.45   55.28
   4 -12  -4  373.85   41.56
  -4 -12   4  430.50   23.76
   4  12   4  405.15   38.49
   4  12   4  430.44   21.52
  -4  12  -4  455.46   37.40
  -4  12  -4  427.44   17.77
  -4 -12   4  449.44   48.35
   4 -12  -4  425.04   22.29
  -6  12   4  281.13   20.46
   6 -12   4  241.99   30.44
  -6 -12  -4  344.65   46.87
   6 -12   4  317.96   16.49
  -6  12   4  294.47   18.29
   6  12  -4  379.51   56.44
   6  12  -4  261.23   20.07
  -6 -12  -4  284.85   13.57
  -6 -12  -4  290.81   13.35
  -6 -12   4  306.75   21.06
   6 -12  -4  297.81   19.38
   6  12   4  261.06   38.02
  -6 -12   4  262.96   49.56
   6  12   4  312.28   18.81
   6 -12  -4  301.81   48.73
   6  12   4  297.65   19.07
   6 -12  -4  222.43   50.62
   8  12  -4  112.24   47.47
   8 -12   4  189.17   39.34
  -8 -12  -4   91.94   35.74
   8 -12   4  104.45   11.85
  -8  12   4   99.14   16.13
   8 -12  -4   21.19   31.21
   8 -12  -4   76.94   12.62
   8 -12  -4   72.57   42.19
  -8 -12   4  108.22   15.27
  -8 -12   4  125.08   45.47
   8  12   4  135.08   16.51
   8  12   4  103.07   32.88
  10  12  -4   66.47   59.71
 -10  12   4   87.19   15.07
  10 -12   4   35.43   29.61
 -10 -12  -4   -5.40   44.92
  10 -12   4   28.58   42.74
  10 -12   4   80.23   12.08
  10  12   4  117.23   12.68
  10 -12  -4   68.27   13.25
 -10 -12   4   55.12   13.32
 -10 -12   4  -68.02   58.86
  10 -12  -4   36.93   47.39
 -10 -12   4   74.35   14.84
  10  12   4   87.04   41.30
  10 -12  -4   28.65   59.68
   1  13  -4   83.44   22.27
  -1 -13  -4   85.04    8.34
   1  13  -4   90.79    9.46
  -1  13   4   90.70    8.52
  -1  13   4  119.85   27.04
   1 -13   4   73.59   20.20
   1 -13   4   93.84    8.95
  -1 -13  -4   60.92   19.53
  -1  13  -4  117.35   23.34
   1  13   4   77.74    9.04
   1 -13  -4   59.14   19.91
  -1 -13   4   90.09   10.36
  -1  13  -4   91.14    8.65
   1  13   4   87.75   22.09
  -1 -13   4   72.44   23.96
  -1 -13   4   85.68    9.07
   1 -13  -4   98.06    9.30
  -3  13   4    4.65   19.78
   3 -13   4   16.79    5.28
   3  13  -4   12.33   20.88
   3 -13   4   15.17   14.04
   3  13  -4   13.41    5.76
  -3 -13  -4  -10.48   12.90
  -3 -13  -4   17.03    4.97
  -3  13   4   16.75    5.38
  -3 -13   4    4.90    5.53
   3  13   4   15.47    5.74
   3  13   4   -3.94   13.84
  -3 -13   4   38.02   20.13
  -3  13  -4   33.83   15.84
  -3  13  -4   19.82    4.53
   3 -13  -4   15.36   17.00
  -3 -13   4   13.18    6.01
   3 -13  -4   10.97    5.88
   5  13  -4   20.74   26.12
  -5  13   4   38.99   10.37
   5 -13   4   17.35   15.12
  -5  13   4   30.06    7.31
   5  13  -4   28.84    7.73
   5 -13   4   23.46    6.22
  -5 -13  -4   13.66   21.95
  -5 -13  -4   39.40    6.02
  -5 -13   4   42.03   27.46
   5  13   4   33.66    8.30
   5 -13  -4   31.45    8.34
  -5 -13   4   28.90    8.66
   5 -13  -4  -43.46   20.20
   5  13   4   51.46    9.02
  -5  13  -4   21.08   17.78
   5 -13  -4   59.77   33.27
   5  13   4   55.43   21.82
  -7 -13  -4   17.79    4.53
  -7 -13  -4   25.81    4.27
   7 -13   4   33.50   27.40
  -7  13   4   13.83    7.86
   7  13  -4   72.24   37.18
  -7 -13  -4   35.60   26.85
   7 -13   4   18.33    6.35
   7  13   4   17.16    7.64
  -7 -13   4   24.04   39.16
  -7 -13   4   15.91    8.67
   7 -13  -4   34.62   32.88
   7 -13  -4    1.87   34.78
   7  13   4   37.36   25.34
   7 -13  -4   20.80    8.34
  -9  13   4   28.40   10.22
  -9 -13  -4  -29.33   35.03
   9 -13   4   14.48    7.19
   9 -13   4  -16.44   34.77
   9  13  -4   14.12   47.44
   9 -13   4   27.79   25.13
   9 -13  -4  -19.90   48.98
  -9 -13   4    8.01    8.98
   9  13   4  -50.24   29.00
   9  13   4   43.20    8.55
   9 -13  -4   14.37   36.54
   9 -13  -4   10.22    8.14
  -9 -13   4    0.59    7.77
  -9 -13   4  -36.20   43.94
   0 -14  -4  714.05   30.20
   0  14  -4  713.74   51.75
   0 -14   4  636.94   50.98
   0 -14  -4  625.59   49.35
   0 -14   4  658.13   30.19
   0  14   4  669.97   29.85
   0  14   4  743.34   55.59
   0  14  -4  678.14   30.94
  -2  14   4  384.35   20.29
   2  14  -4  395.62   22.41
   2  14  -4  343.43   39.27
  -2 -14  -4  424.46   19.85
   2 -14   4  379.16   38.63
  -2  14   4  457.70   46.62
   2 -14   4  424.14   20.69
   2  14   4  384.38   38.47
   2 -14  -4  358.47   38.63
  -2 -14   4  415.04   22.08
  -2  14  -4  420.24   20.01
   2  14   4  384.52   20.52
  -2 -14   4  418.69   22.24
  -2  14  -4  380.10   36.41
   2 -14  -4  402.00   21.25
  -2 -14   4  402.09   43.68
   4  14  -4  263.80   44.26
  -4 -14  -4  188.31   12.28
  -4  14   4  256.23   45.20
  -4  14   4  200.15   14.48
  -4 -14  -4  205.64   37.41
   4 -14   4  160.06   28.28
   4 -14   4  204.67   13.31
   4  14  -4  203.89   16.78
   4  14   4  180.97   14.43
  -4 -14   4  198.50   15.96
  -4 -14   4  303.55   48.75
  -4 -14   4  202.71   16.23
  -4  14  -4  188.22   30.69
  -4  14  -4  206.64   11.53
   4  14   4  218.71   34.48
   4 -14  -4  199.58   15.01
   4 -14  -4  242.99   37.46
  -6 -14  -4  201.05   11.25
  -6 -14  -4  192.06   40.80
  -6  14   4  196.34   15.23
   6 -14   4  176.15   13.35
  -6  14   4  190.35   17.74
  -6 -14  -4  182.30   11.66
   6  14  -4  209.78   48.72
   6 -14  -4  151.52   49.40
  -6 -14   4  199.49   47.60
  -6  14  -4  194.00   33.82
   6  14   4  240.85   37.95
  -6 -14   4  207.10   17.86
   6 -14  -4  182.71   40.15
   6 -14  -4  198.05   16.38
   6  14   4  200.85   16.15
  -6 -14   4  178.44   16.80
   6  14   4  198.99   16.28
   8 -14   4   87.37   11.63
  -8 -14  -4   76.70    6.14
   8 -14   4   28.09   24.22
   8  14  -4   80.22   47.68
   8 -14   4   72.16   34.89
  -8 -14  -4   77.59   39.24
  -8  14   4   64.99   13.40
  -8 -14  -4   77.82    6.67
  -8 -14   4   61.51   12.99
   8  14   4   91.64   14.12
  -8 -14   4   50.86   12.20
   8 -14  -4   91.85   14.43
   8 -14  -4  121.02   48.27
  -8 -14   4   89.03   45.99
   8  14   4   25.72   29.54
   8 -14  -4   21.37   31.06
  10 -14   4   44.21   10.23
 -10  14   4   75.93   15.55
  10  14  -4   23.22   61.97
 -10 -14  -4    2.52   51.03
  10 -14   4   44.64   48.06
 -10 -14   4   55.85   14.26
  10 -14  -4   86.73   50.01
 -10 -14   4  -42.98   57.47
  10  14   4   39.23   43.85
  10 -14  -4   71.30   13.97
 -10 -14   4   70.49   14.96
  10 -14  -4  112.45   79.24
  -1  15   4   83.61   27.13
  -1 -15  -4   83.38   24.36
   1 -15   4  104.93   11.32
  -1  15   4   83.52   10.21
   1  15  -4   84.31   23.44
   1  15  -4  105.53   13.26
  -1 -15  -4   99.87    9.72
   1 -15   4   91.46   24.87
   1 -15  -4   95.52   11.09
   1  15   4  104.17   25.79
   1  15   4   88.19   10.67
  -1  15  -4  110.18   24.08
  -1  15  -4   89.68    9.64
  -1 -15   4   71.30   23.84
  -1 -15   4   87.68   10.89
   1 -15  -4   65.92   22.03
   3  15  -4   42.95    8.99
  -3 -15  -4   39.84    7.28
  -3  15   4   40.20    8.04
   3  15  -4   24.97   23.34
   3 -15   4   26.10    6.47
   3 -15   4   32.25   18.68
  -3  15   4  -10.76   20.76
   3  15   4   30.69   19.42
   3  15   4   28.94    7.22
  -3  15  -4   49.22    7.11
   3 -15  -4   31.96   19.66
  -3 -15   4   26.91    8.29
   3 -15  -4   43.81    8.83
  -3  15  -4   25.31   17.98
  -3 -15   4   35.53    7.78
  -3 -15   4   31.02   23.69
  -5 -15  -4   28.92    6.46
   5  15  -4   20.22   27.88
  -5  15   4   20.86    7.60
  -5  15   4   25.15    7.83
   5  15  -4   27.17    8.50
   5 -15   4   32.22    7.25
  -5 -15  -4   26.59   25.09
   5 -15  -4   66.88   26.22
  -5 -15   4   25.67   26.08
  -5 -15   4   26.53    8.33
   5  15   4   28.07    8.44
   5  15   4   21.85   21.36
   5  15   4   23.79    7.83
  -5  15  -4    6.51   18.69
  -5  15  -4   22.72    4.92
  -5 -15   4   20.70    8.48
   5 -15  -4   22.40    7.89
   7 -15   4   14.00    6.29
  -7 -15  -4  -26.60   30.13
  -7 -15  -4   11.55    4.56
   7 -15   4  -13.17   28.10
  -7 -15  -4   16.18    5.33
  -7  15   4   11.94    9.06
   7  15  -4  -30.25   37.61
   7 -15  -4   13.19    7.68
  -7 -15   4   19.20    9.25
  -7 -15   4   43.43   39.96
   7 -15  -4   56.90   39.33
   7  15   4   32.55   30.72
   7 -15  -4   17.15   30.38
  -7 -15   4   14.44    8.65
   7  15   4    4.91    7.06
  -9  15   4    3.50    9.09
   9 -15   4   14.27   27.36
   9  15  -4   56.96   52.68
   9 -15   4   13.35    7.60
   9 -15   4   33.78   44.04
  -9 -15  -4  -46.10   39.70
  -9 -15   4   28.31   51.22
   9 -15  -4   49.41   52.81
  -9 -15   4   15.88   10.53
  -9 -15   4   10.05    8.44
   9  15   4   19.99   38.47
   9 -15  -4   12.58    9.19
   0  16  -4  504.11   46.64
   0  16   4  465.95   24.06
   0 -16  -4  497.34   24.54
   0 -16   4  469.29   48.92
   0 -16  -4  546.46   50.03
   0  16  -4  499.47   25.54
   0  16   4  494.19   50.37
   0 -16   4  489.33   25.02
   2 -16   4  308.15   18.09
   2  16  -4  322.16   20.49
  -2  16   4  335.45   51.93
   2 -16   4  223.84   36.28
  -2 -16  -4  328.60   39.97
   2  16  -4  362.75   42.35
  -2 -16  -4  309.92   17.60
  -2  16   4  326.91   18.51
  -2 -16   4  290.51   43.98
   2 -16  -4  332.89   39.46
  -2  16  -4  288.70   35.96
  -2  16  -4  312.33   17.82
   2  16   4  315.21   37.65
   2  16   4  296.35   18.64
   2 -16  -4  313.44   19.10
  -2 -16   4  331.63   19.97
  -4  16   4  269.65   49.02
   4  16  -4  200.98   40.34
  -4 -16  -4  215.98   14.01
  -4  16   4  193.26   15.37
   4 -16   4  158.07   30.69
   4  16  -4  203.07   17.79
   4 -16   4  225.94   14.96
  -4 -16   4  211.66   17.14
  -4  16  -4  193.38   34.25
   4 -16  -4  202.00   16.17
   4 -16  -4  267.10   42.21
   4  16   4  212.66   16.08
   4  16   4  195.05   34.59
  -4  16  -4  218.29   13.22
  -4 -16   4  248.82   47.41
  -4 -16   4  211.58   17.17
  -6 -16  -4  136.11   40.93
   6  16  -4  122.62   44.34
   6 -16   4  164.92   13.08
  -6  16   4  143.08   16.07
  -6 -16  -4  134.97   10.97
  -6 -16   4  112.08   41.94
   6  16   4  130.06   14.79
   6  16   4  147.34   14.93
   6 -16  -4  128.40   49.16
  -6 -16   4  115.96   14.67
   6  16   4  130.71   32.80
   6 -16  -4   71.37   32.15
   6 -16  -4  129.54   15.98
  -6  16  -4   76.09   30.11
  -6 -16   4  129.55   16.14
   8 -16   4   66.01   10.65
  -8  16   4   69.15   15.09
  -8 -16  -4   60.19    7.53
   8 -16   4   -6.78   37.92
   8 -16   4   24.73   26.01
  -8 -16  -4  -13.09   36.79
   8  16  -4    2.61   43.48
   8 -16  -4   81.35   52.48
  -8 -16   4   86.69   56.25
  -8 -16   4   73.62   14.53
   8 -16  -4   76.53   40.83
   8 -16  -4   60.12   12.74
  -8 -16   4   68.73   14.38
   8  16   4  104.28   39.74
   1  17  -4   68.19   26.18
   1 -17   4   69.48   24.83
   1 -17   4   71.48   10.50
  -1 -17  -4   91.15   27.56
  -1 -17  -4   73.18   10.13
   1  17  -4   83.57   11.87
  -1  17   4   92.29   29.06
  -1  17   4   71.39   10.65
   1  17   4   68.62   10.27
  -1 -17   4   82.94   11.45
   1 -17  -4   60.46    9.85
   1  17   4   57.99   27.06
  -1 -17   4   59.88   25.65
  -1  17  -4   65.21   10.07
   1 -17  -4   58.75   23.67
  -1  17  -4   73.33   23.56
  -3  17   4   42.34   26.83
  -3  17   4   55.38    9.12
   3 -17   4   38.25    8.28
   3 -17   4   59.59   25.36
   3  17  -4   42.76    9.93
  -3 -17  -4   18.36   25.86
   3  17  -4   44.16   27.03
  -3 -17  -4   56.54    8.86
  -3  17  -4    7.88   18.02
   3  17   4   20.19   19.53
  -3  17  -4   53.14    8.52
  -3 -17   4   43.43    9.64
  -3 -17   4   14.14   24.56
   3 -17  -4   41.58    9.21
   3  17   4   41.80    9.02
   3 -17  -4   53.78   24.11
  -5 -17  -4   62.04   33.16
   5 -17   4   23.84    7.33
   5  17  -4   22.47   30.91
  -5 -17  -4   22.13    6.75
  -5  17   4   38.34   11.34
  -5  17   4   30.25   31.68
   5  17   4   -7.43   21.15
  -5 -17   4   -9.72   30.05
   5  17   4   44.32   10.13
   5  17   4   21.51    8.37
  -5  17  -4   28.95    6.08
  -5 -17   4   35.44    9.45
  -5  17  -4   64.96   27.84
   5 -17  -4   29.61    8.89
  -5 -17   4   34.95   10.51
   5 -17  -4   11.81   26.36
  -7 -17  -4   30.30   38.84
   7 -17   4   14.02    7.33
   7  17  -4   42.63   41.87
  -7 -17  -4    8.77    5.40
  -7 -17  -4   11.10    5.13
  -7  17   4    7.00    8.34
   7 -17   4   24.31   27.70
   7 -17  -4   24.46   47.42
  -7 -17   4   -3.15    7.72
   7 -17  -4  -22.09   26.97
   7 -17  -4    3.23    7.77
  -7 -17   4   16.51    8.94
   7  17   4   33.98   31.38
  -7 -17   4   10.76   39.95
   9 -17   4  -25.84   45.18
  -9 -17  -4   -1.38    1.19
  -9 -17  -4   -0.64    0.95
  -9 -17  -4  -35.36   49.49
   9  17  -4   16.20   59.97
   9 -17   4    2.54    7.10
  -9  17   4   10.91   10.72
  -9 -17   4   16.66   10.17
   9 -17  -4    1.53    8.31
   9 -17  -4  -37.80   43.63
  -9 -17   4   23.30   11.57
   9  17   4   22.63   41.31
   9 -17  -4   12.07   60.86
  -9 -17   4   -6.02   64.59
   0  18   4  186.06   14.53
   0  18  -4  182.23   36.03
   0 -18  -4   86.81   29.83
   0 -18   4  215.06   15.94
   0 -18   4  184.13   36.94
   0  18   4  183.44   37.23
   0  18  -4  205.34   15.85
   0 -18  -4  200.72   14.75
   2 -18   4  152.15   32.89
   2  18  -4  238.33   18.26
   2  18  -4  175.69   37.02
  -2  18   4  237.81   45.64
  -2 -18  -4  222.48   42.57
   2 -18   4  173.80   14.69
  -2 -18  -4  201.81   14.90
  -2  18   4  206.09   14.85
   2 -18  -4  184.97   37.05
  -2  18  -4  209.79   15.06
   2  18   4  210.54   38.19
  -2 -18   4  229.65   16.84
   2 -18  -4  193.57   15.97
   2  18   4  193.41   15.78
  -2 -18   4  160.03   38.41
  -2  18  -4  162.08   31.53
  -4 -18  -4  101.74   11.94
   4 -18   4  128.43   30.56
   4  18  -4  142.54   39.02
   4 -18   4  142.12   13.19
  -4  18   4   79.34   37.36
   4  18  -4  163.93   16.63
  -4 -18  -4   99.16   36.47
  -4  18  -4  141.06   11.69
   4  18   4  135.66   15.19
  -4  18  -4   75.78   28.53
  -4 -18   4  185.77   44.41
  -4 -18   4  151.71   16.56
   4 -18  -4  120.88   14.74
   4  18   4   71.32   27.82
   4 -18  -4   58.02   28.06
  -6 -18  -4   83.95    9.99
   6  18  -4   96.52   42.96
   6 -18   4   92.43   12.03
   6 -18   4   37.94   28.10
  -6  18   4   61.72   12.47
  -6 -18  -4   80.60   38.98
  -6 -18   4   87.04   14.58
  -6 -18   4  118.30   16.04
   6 -18  -4  100.50   14.90
  -6  18  -4   51.13   30.47
   6 -18  -4   84.04   33.31
  -6  18  -4  100.30    8.75
   6  18   4   62.56   33.15
  -6 -18   4   10.63   37.28
  -8 -18  -4  -42.56   41.62
   8 -18   4   59.14   35.38
   8  18  -4    7.78   50.09
   8 -18   4   58.59   10.80
   8 -18   4   18.93   44.75
  -8 -18  -4   46.15    7.90
  -8  18   4   47.31   12.56
  -8 -18   4   57.94   14.12
   8  18   4   30.10   41.65
  -8 -18   4  104.50   60.86
   8 -18  -4   34.41   37.19
  -8 -18   4   47.06   12.48
   8 -18  -4   23.28   55.53
   8 -18  -4   42.88   11.95
   1  19  -4   34.82    8.88
  -1  19   4   36.22    8.74
  -1 -19  -4   32.02    8.19
   1 -19   4   27.16    8.20
   1  19  -4   46.97   25.91
  -1 -19  -4   32.46   26.35
  -1  19   4   58.93   27.26
   1 -19   4   27.31   25.73
   1  19   4   17.06    7.15
   1 -19  -4   67.44   30.30
   1  19   4   25.21   22.43
  -1 -19   4   28.59    8.60
   1 -19  -4   36.92    9.34
  -1  19  -4   30.78   19.83
  -1  19  -4   37.70    8.47
  -1 -19   4   60.14   27.77
  -3 -19  -4  -28.26   26.68
   3  19  -4   14.53   25.06
   3 -19   4   25.64    7.78
  -3 -19  -4   29.42    8.02
   3  19  -4   17.84    8.73
  -3  19   4   -8.62   27.09
   3 -19   4    8.48   21.99
  -3  19  -4   12.79   20.47
  -3 -19   4   18.01    8.54
   3  19   4   19.96    8.46
   3  19   4   16.46   22.14
   3 -19  -4   21.83   23.50
  -3 -19   4   -3.61   30.23
  -3  19  -4   22.68    7.00
   3 -19  -4   18.83    7.98
   5  19  -4   25.79   34.19
  -5  19   4  -13.32   35.26
  -5 -19  -4    5.28    5.99
   5 -19   4    5.12    6.53
   5 -19   4   -3.57   24.36
  -5  19  -4   21.79    6.30
   5  19   4  -18.64   25.75
  -5 -19   4   20.72    9.24
  -5  19  -4  -17.38   26.36
  -5 -19   4   45.50   36.97
   5 -19  -4    7.58    7.74
   5 -19  -4   34.43   28.03
   7 -19   4    1.41   29.05
   7  19  -4  -40.27   47.54
  -7 -19  -4    2.04    4.84
  -7 -19  -4    8.34    6.38
  -7  19   4   18.61   10.10
  -7 -19  -4  -17.19   39.18
   7 -19   4   14.67    7.82
   7  19   4   -7.49   34.47
   7 -19  -4   58.56   56.15
  -7  19  -4  -38.00   32.96
  -7 -19   4  -20.58   48.60
   7 -19  -4   23.58   37.37
   7 -19  -4    9.58    8.87
  -7 -19   4   14.01    9.41
   9 -19   4    8.26    8.01
  -9 -19  -4    1.80    1.96
   9 -19  -4    9.36    9.92
   0  20   4   71.50   31.17
   0 -20  -4   86.82   12.16
   0  20  -4  111.71   30.71
   0 -20  -4   86.04   33.38
   0 -20   4   93.44   35.75
   0 -20   4   77.96   11.91
   0  20   4  100.29   12.54
   0  20  -4   86.29   12.62
   2  20  -4   17.45   28.52
   2 -20   4   63.54   10.44
  -2 -20  -4   69.20   10.48
   2  20  -4   80.84   13.69
  -2  20   4   27.47   29.73
  -2 -20  -4   55.46   28.80
   2 -20   4   37.77   24.11
  -2 -20   4   44.29   28.40
   2 -20  -4   62.69   10.93
  -2  20  -4   76.44   26.89
   2  20   4   53.05   29.77
  -2  20  -4   88.62   11.83
   2  20   4   68.16   11.42
  -2 -20   4   75.70   12.14
   2 -20  -4   49.80   26.59
  -4 -20  -4   48.92    9.58
   4 -20   4   62.02   10.98
  -4 -20  -4   58.95   34.00
   4  20  -4   93.35   37.07
  -4  20   4   49.00   41.52
  -4  20  -4   45.83   29.82
  -4 -20   4   54.80   39.80
   4 -20  -4   30.60   26.08
  -4  20  -4   72.24   10.28
   4  20   4   34.60   26.92
   4 -20  -4   61.98   12.26
  -4 -20   4   54.98   11.90
  -6  20   4   39.03   11.57
  -6 -20  -4   46.86    9.35
   6  20  -4  134.03   53.05
   6 -20   4   51.51   30.48
   6 -20   4   34.10    8.96
  -6  20  -4   54.77   36.23
   6 -20  -4   19.96   32.53
   6 -20  -4   31.72   11.14
  -6 -20   4   43.71   45.78
  -6 -20   4   29.67   11.01
  -6  20  -4   45.48    7.56
   6  20   4   22.33   32.95
   8 -20   4   32.52   56.62
  -8 -20  -4   33.12   50.04
  -8  20   4   38.57   13.98
  -8 -20  -4   19.53    7.11
   8  20  -4   80.12   67.10
   8 -20   4   16.60    8.17
  -8 -20   4   17.62   11.06
   8 -20  -4   15.71   10.58
   8  20   4   29.52   45.10
   8 -20  -4   27.99   72.30
  -8 -20   4   54.74   61.96
   1 -21   4   47.23   27.96
   1 -21   4   16.66    8.13
  -1 -21  -4    7.77    7.02
   1  21  -4  -11.57   27.80
  -1 -21  -4   41.47   29.77
  -1  21   4    6.43   28.43
   1  21  -4   23.45    9.39
   1 -21  -4    7.78    7.30
  -1  21  -4   46.51   27.89
  -1 -21   4  -14.94   24.84
   1 -21  -4  -14.96   23.93
   1  21   4   51.08   30.55
  -1  21  -4   15.34    8.08
  -1 -21   4   12.75    8.34
  -3 -21  -4   17.95   34.48
  -3 -21  -4   13.57    7.71
   3 -21   4    8.44    7.18
   3  21  -4   -3.09   30.20
  -3  21   4  -18.13   33.02
   3 -21  -4   22.85   28.33
   3 -21  -4    9.74    7.98
  -3  21  -4   24.68   24.56
  -3 -21   4   12.88    8.49
  -3 -21   4  -11.02   34.80
  -3  21  -4   12.21    6.92
   3  21   4   21.32   29.84
   5 -21   4    0.81   28.67
  -5  21   4   -1.89   40.42
  -5 -21  -4  -43.27   38.34
  -5 -21  -4   11.96    7.29
   5 -21   4    4.60    7.08
   5  21  -4   -0.21   35.43
  -5  21  -4   33.55   33.74
  -5 -21   4   80.09   50.09
   5 -21  -4    4.96    8.18
   5  21   4  -38.43   31.83
  -5  21  -4   15.47    6.59
  -5 -21   4    4.52    8.37
   5 -21  -4   17.55   31.00
   7 -21   4   26.85   35.23
   7 -21   4   -3.91    7.03
   7  21  -4  -14.00   49.64
  -7 -21  -4    2.66    6.30
  -7  21   4    3.53    8.96
  -7 -21   4    0.90    9.19
   7 -21  -4  -13.77   38.24
  -7 -21   4  -11.44   55.63
   7 -21  -4   72.58   62.57
   7 -21  -4    2.96    8.79
  -7  21  -4   10.49   40.29
   7  21   4   -7.94   38.03
   0 -22   4   66.23   11.76
   0  22  -4   41.31   31.87
   0 -22  -4   66.15   32.32
   0  22   4  111.76   39.46
   0 -22   4  -27.88   29.59
   0 -22  -4   65.72   11.93
   0  22  -4   75.16   12.38
   2 -22   4   79.40   12.12
  -2  22   4   33.20   35.27
  -2 -22  -4   65.98   11.47
  -2 -22  -4   73.55   35.77
   2  22  -4  118.59   36.71
   2 -22  -4   83.45   13.34
  -2  22  -4   59.96   32.46
   2 -22  -4   80.20   35.13
  -2  22  -4   77.03   12.21
  -2 -22   4   64.80   12.52
   2  22   4   85.02   36.99
  -2 -22   4   59.70   34.29
   4 -22   4   28.96   28.19
  -4 -22  -4   45.30   41.61
  -4 -22  -4   48.53   10.33
   4 -22   4   50.83   11.00
   4  22  -4    0.50   35.00
  -4  22   4  111.86   53.58
   4 -22  -4   49.14   11.79
  -4 -22   4   90.20   44.66
  -4  22  -4   41.61   33.85
  -4  22  -4   48.01    9.61
  -4 -22   4   58.26   12.17
   4 -22  -4   76.72   36.77
   4  22   4  119.39   38.99
  -6  22   4   19.37   10.11
  -6 -22  -4   10.04    7.34
   6 -22   4   25.21    9.25
   6  22  -4   14.69   51.65
   6 -22   4  -29.13   32.38
  -6  22   4  -58.60   50.04
  -6 -22  -4   -4.48   42.21
   6 -22  -4   30.43   36.57
  -6 -22   4  -17.56   49.65
  -6 -22   4   30.67   12.34
   6 -22  -4   18.39    9.94
   6  22   4   61.22   41.97
  -6  22  -4   27.96   42.51
  -1  23   4    5.76   32.71
   1 -23   4   29.22    9.72
  -1 -23  -4   21.34    9.01
  -1 -23  -4   25.11   33.77
   1  23  -4  -24.65   28.60
  -1  23  -4   47.14   31.69
   1 -23  -4   32.71   32.45
   1  23   4   27.53   32.11
  -1 -23   4   13.54   31.52
  -1 -23   4   17.01    9.02
   1 -23  -4   14.58    8.55
  -1  23  -4   28.60    9.55
  -3 -23  -4   14.60    8.34
  -3  23   4   -0.36   44.54
  -3 -23  -4   70.48   43.46
   3 -23   4   14.46    8.36
   3  23  -4   12.34   36.53
   3 -23   4   20.39   35.02
   3  23   4  -10.18   28.92
   3 -23  -4   15.86   31.56
   3 -23  -4   16.38    9.51
  -3  23  -4   13.87    7.78
  -3 -23   4   20.88   10.72
  -3 -23   4   26.19   38.36
  -3  23  -4  -13.21   27.27
  -5 -23  -4    6.80    7.29
  -5 -23  -4  -23.66   41.44
   5 -23   4    2.33   32.39
  -5  23   4  -72.47   45.72
   5 -23   4    4.27    7.34
   5  23  -4   19.37   43.98
  -5 -23   4    5.25    8.72
   5 -23  -4   13.22   10.04
   5  23   4   10.84   38.37
  -5 -23   4   24.71   52.46
   5 -23  -4   -7.35   37.48
  -5  23  -4   -9.93   38.05
  -5  23  -4   15.61    7.43
  -7 -23  -4   48.48   72.34
   7 -23   4   10.42    8.20
  -7 -23  -4    8.23    7.36
   7  23  -4  -79.24   54.83
  -7  23   4    3.55    9.32
  -7 -23   4   -1.67    9.82
  -7 -23   4   35.94   63.77
  -7  23  -4   -0.45    1.71
   7  23   4  -33.74   45.61
  -7  23  -4    0.36    1.70
   7 -23  -4  -20.55   70.22
   7 -23  -4   -5.89    8.18
   0 -24  -4   50.69   37.59
   0 -24   4   44.03   10.79
   0  24  -4   73.71   19.57
   0  24  -4   26.05   34.28
   0 -24  -4   65.12   12.47
   0  24   4   62.72   40.64
   2  24  -4   65.52   39.34
  -2 -24  -4   30.12   42.95
  -2  24   4   35.25   45.15
   2 -24   4  101.84   39.51
   2 -24   4   47.85   11.32
  -2 -24  -4   55.66   11.39
  -2  24  -4   54.02   34.07
   2  24   4   30.09   34.63
  -2 -24   4   21.86   65.60
  -2 -24   4   56.89   12.37
  -2  24  -4   77.19   12.56
   2 -24  -4    6.81   34.50
   2 -24  -4   46.23   11.96
  -4  24   4    3.23   50.66
   4  24  -4   63.27   49.54
   4 -24   4   32.15   35.20
  -4 -24  -4   -5.79   42.85
  -4 -24  -4   43.51   10.50
   4 -24   4   59.21   11.53
   4  24   4   53.57   42.27
   4 -24  -4   10.42   38.96
  -4 -24   4   29.98   11.81
   4 -24  -4   40.82   12.32
  -4 -24   4  -34.39   44.72
  -4  24  -4   20.33   40.02
  -4  24  -4   55.14   10.84
  -6  24   4    7.70    9.50
  -6  24   4   22.91   60.91
   6  24  -4   53.23   61.59
   6 -24   4   20.53    9.47
  -6 -24  -4  -13.32   50.27
  -6 -24  -4   19.83    9.00
   6 -24  -4   54.89   46.77
   6  24   4   50.80   44.22
  -6 -24   4   21.74   11.84
   6 -24  -4   20.40   11.15
  -6 -24   4   42.19   72.14
  -1  25   4   24.39   46.33
  -1 -25  -4   11.67   36.50
  -1 -25  -4   11.31    9.00
   1 -25   4   11.12    8.59
   1  25  -4    7.98   34.03
   1 -25   4   16.27   39.80
  -1  25  -4   28.32   32.00
   1 -25  -4    6.04    9.21
   1 -25  -4   37.04   43.54
  -1 -25   4   18.05    9.89
   1  25   4  -23.11   34.10
   3  25  -4   64.97   49.84
  -3 -25  -4   32.77   43.23
  -3  25   4   25.28   46.41
   3 -25   4  -33.38   38.24
  -3 -25  -4   16.64    9.30
   3 -25   4    8.17    9.01
  -3  25  -4   10.30    8.16
  -3 -25   4    4.57    9.25
  -3  25  -4  -28.02   33.31
   3  25   4  -42.02   34.15
   3 -25  -4   96.69   44.42
   3 -25  -4    8.30    9.12
   5 -25   4    5.86    8.41
   5 -25   4  -66.31   39.80
   5  25  -4   10.06   59.60
  -5  25   4  -26.42   57.72
  -5 -25  -4  -32.36   51.35
  -5 -25  -4   -4.30    7.79
   5  25   4   12.68   46.10
  -5  25  -4   11.97    6.95
   5 -25  -4  -85.60   40.92
  -5 -25   4   21.94   11.82
   5 -25  -4   -6.11    8.36
  -5  25  -4   17.99   47.95
   0 -26  -4  -57.72   42.62
   0 -26  -4   11.17    9.41
   0 -26   4   23.79   10.18
   0 -26   4    8.24   42.44
   0  26   4   48.80   44.64
   0  26  -4   -8.84   35.12
  -2 -26  -4  -22.67   41.93
   2 -26   4   31.30   46.23
   2  26  -4   33.14   42.24
  -2  26   4    0.20   47.83
  -2 -26  -4   20.58    9.72
   2 -26   4   33.90   11.24
   2 -26  -4   35.68   40.83
   2  26   4   36.40   43.22
  -2 -26   4   19.69   10.94
  -2  26  -4   17.87   38.79
  -2 -26   4   32.31   51.26
   2 -26  -4    8.62    9.49
  -4 -26  -4   12.71    8.87
   4 -26   4   31.82   10.25
   4  26  -4  -40.96   51.50
  -4  26   4  101.14   69.40
   4 -26   4   52.29   44.73
  -4 -26  -4   39.41   55.28
  -4 -26   4    4.68    9.73
   4 -26  -4   -6.84   46.24
  -4  26  -4   44.83   10.02
  -4 -26   4  -18.81   65.46
  -4  26  -4  -21.38   44.05
   4 -26  -4    9.29    9.75
   4  26   4   72.04   47.57
  -1  27   4  -70.94   47.60
   1  27  -4    5.84   44.36
  -1 -27  -4  -10.04   44.24
   1 -27   4   26.55   48.80
  -1 -27  -4   16.65    9.54
   1 -27   4    9.48    9.42
  -1 -27   4  -18.75   49.18
   1  27   4  -16.91   42.95
   1 -27  -4  -62.53   46.14
  -1  27  -4   57.38   40.20
   1 -27  -4    5.21    9.29
  -1 -27   4    5.98    9.35
   3 -27   4  -12.84   48.32
  -3 -27  -4  -19.95   51.17
  -3  27   4  -27.45   55.88
  -3 -27  -4    8.35    9.05
   3  27  -4  -15.87   48.73
   3 -27   4   10.15    9.45
   3 -27  -4   10.54   47.57
  -3 -27   4   -5.45   58.13
   3  27   4    1.42   48.84
  -3 -27   4    4.02    9.91
  -3  27  -4    2.48   48.90
   3 -27  -4    2.61    9.09
   0  28   4   -0.01   56.55
   0  28  -4   37.94   48.05
   0 -28  -4  -45.04   47.48
   0 -28   4   24.85   10.67
   0 -28   4   55.44   57.67
   0 -28  -4   29.67   11.77
  -2 -28  -4   33.72   10.77
  -2  28   4   56.08   60.53
   2 -28   4   11.95   52.90
   2  28  -4    9.88   51.73
  -2 -28  -4   54.85   55.40
   2 -28   4   11.58    9.50
  -2 -28   4   27.37   53.59
   2 -28  -4  -70.88   45.72
   2 -28  -4   13.97   10.78
  -2 -28   4   14.30   10.88
   2  28   4    9.77   54.27
  -2  28  -4  -63.10   47.68
  -1 -29  -4   -2.63    8.96
   1 -29  -4    8.50   10.90
   0   0   5   58.59    4.47
   0   0   5   55.84    6.80
   0   0  -5   47.32   12.77
   2   0  -5  101.39    9.20
   2   0   5  136.84    8.17
   2   0  -5  163.55   26.45
  -2   0   5  149.41   26.94
  -2   0   5  125.64   10.07
  -2   0   5  114.24    8.09
  -4   0   5   83.06    7.96
  -4   0   5   84.18   11.06
   4   0  -5   87.75   11.62
   4   0   5   76.91    5.56
   4   0  -5  142.31   31.39
  -4   0   5   45.44   21.65
   6   0   5  115.65   12.34
   6   0  -5  125.42   36.80
  -6   0   5  129.60   11.17
   6   0  -5  123.27   12.55
   6   0   5  116.48    6.78
  -6   0   5  113.73   12.69
   6   0   5  101.36   10.87
  -6   0   5  131.21   36.10
   8   0   5   17.98   12.99
   8   0   5   20.96    4.86
   8   0  -5   23.40   37.61
   8   0  -5   25.15    9.11
  -8   0   5   17.21   33.77
  -8   0   5   10.12    7.92
   8   0   5   45.69   16.60
  -8   0   5   18.44    8.37
 -10   0   5   30.48   10.11
  10   0   5   -0.76   27.02
 -10   0   5   20.48   48.28
  10   0   5  -13.43   20.57
  10   0  -5  -42.25   47.14
  -1  -1  -5 1805.50   74.26
  -1  -1  -5 1577.86   69.75
   1   1  -5 1811.79   84.17
  -1   1   5 1792.65   66.78
   1  -1   5 1832.83   64.98
  -1   1   5 1698.76   63.67
   1   1  -5 1771.05   66.21
  -1   1  -5 1708.23   70.35
  -1  -1   5 1754.34   84.39
  -1  -1   5 1757.81   63.54
  -1  -1   5 1824.66   66.74
  -1   1  -5 1761.72   71.52
   1   1   5 1747.75   65.16
   1   1   5 1795.04   61.84
   1  -1  -5 1633.44   83.41
  -3   1   5  580.23   27.83
  -3   1   5  581.18   25.42
  -3   1   5  577.19   48.65
   3   1  -5  636.78   48.39
   3   1  -5  599.75   27.60
   3  -1   5  608.89   23.32
  -3  -1   5  583.87   25.25
   3  -1  -5  565.27   27.17
   3  -1  -5  670.93   50.43
  -3  -1   5  661.52   51.02
  -3  -1   5  497.19   26.81
   5   1  -5 1198.40   82.18
  -5   1   5 1266.68   52.75
  -5   1   5 1482.91   91.02
  -5   1   5 1249.97   49.93
   5   1  -5 1248.18   52.14
   5  -1  -5 1143.76   51.33
   5  -1  -5 1255.89   84.31
  -5  -1   5 1263.58   52.59
  -5  -1   5 1309.42   85.30
   5   1   5 1208.88   44.30
  -5  -1   5 1187.30   49.53
   5   1   5 1251.12   45.46
   5   1   5 1220.62   44.05
   7   1  -5  340.09   22.22
  -7   1   5  347.80   20.53
  -7   1   5  374.01   23.19
  -7   1   5  372.40   60.64
   7  -1   5  300.35   23.14
   7  -1   5  334.26   24.90
   7   1  -5  310.44   55.32
   7  -1   5  344.80   15.60
   7   1   5  293.42   25.13
  -7  -1   5  352.76   20.81
  -7  -1   5  371.99   61.77
   7  -1  -5  396.65   23.23
   7  -1  -5  419.48   64.51
   7   1   5  338.85   15.60
  -7  -1   5  385.24   23.33
   7   1   5  296.13   24.80
   9  -1   5  240.16   14.12
   9  -1   5  239.60   29.16
   9   1  -5  265.56   60.79
  -9   1   5  241.20   20.48
   9  -1   5  243.51   32.27
   9   1   5  205.09   31.67
   9   1   5  210.95   29.58
  -9  -1   5  247.98   20.67
   9  -1  -5  217.42   59.46
  -9  -1   5  171.30   51.93
  11  -1   5   67.42   45.83
  11   1  -5   39.81   60.80
 -11   1   5   68.09   13.96
  11  -1   5  102.27   38.88
  11   1   5   92.29   39.02
 -11  -1   5  -11.13   57.27
 -11  -1   5   76.69   13.84
  11  -1  -5  131.65   74.76
   0  -2   5   19.27    9.58
   0   2   5   18.87    4.33
   0  -2  -5   13.81   10.42
   0  -2   5   16.18    4.10
   0   2  -5   23.07   10.03
   0   2  -5   19.52    4.19
   0  -2  -5   31.43    9.65
   0   2   5   20.37    3.44
  -2  -2  -5  102.10   10.81
   2   2  -5  103.22    9.05
   2  -2   5  114.78    7.15
  -2   2   5  106.40    9.46
  -2   2   5  106.22    7.82
  -2  -2  -5  100.47   11.29
   2   2  -5  100.68   22.87
  -2  -2   5  105.48    9.23
   2   2   5  104.81    4.99
   2  -2  -5   83.63   21.50
  -2  -2   5  108.02    7.63
  -2  -2   5   85.19   20.31
   4   2  -5   19.88   17.15
  -4   2   5   20.79    5.43
  -4   2   5   -2.53   15.14
  -4   2   5   19.58    5.87
   4   2  -5   22.25    5.93
  -4  -2   5   19.88    6.32
   4  -2  -5   40.93   21.45
  -4  -2   5   16.68    4.92
   4  -2  -5   18.48    5.49
  -4  -2   5   -5.51   13.84
   6  -2   5   61.85    5.06
   6  -2   5   67.67    8.87
   6   2  -5   90.41   13.07
  -6   2   5   84.04   11.24
  -6  -2  -5   65.14   13.92
   6   2  -5  107.25   33.30
  -6   2   5   61.05   30.10
  -6   2   5   69.91   11.95
   6  -2   5   69.25    8.33
  -6  -2   5   61.97    9.44
   6   2   5   52.53    5.55
  -6  -2   5   77.93   10.83
   6  -2  -5   76.29   11.98
  -6  -2   5   44.98   26.81
   6   2   5   46.37   11.14
   6  -2  -5   34.92   28.08
   8   2  -5   10.43   31.78
   8  -2   5   30.13   15.78
  -8   2   5   42.46   12.36
  -8   2   5   28.28    9.05
   8   2  -5   44.32   10.01
   8  -2   5   39.61    6.10
   8  -2   5   44.49   13.53
   8  -2  -5   38.59    9.84
  -8  -2   5   33.67    9.91
   8   2   5   18.54   16.66
   8   2   5   37.08    5.51
  -8  -2   5   36.82   37.14
   8  -2  -5   58.50   36.29
 -10   2   5   16.26    9.90
  10  -2   5    5.47   20.48
  10  -2   5   13.90    6.08
  10  -2   5  -36.78   27.16
  10   2  -5  -75.43   43.17
 -10  -2   5  -49.08   47.35
  10   2   5   24.46   22.82
  10  -2  -5   27.33   46.49
  10  -2  -5  -11.23   47.50
 -10  -2   5   21.65   10.72
  10   2   5   27.69   27.83
  -1   3   5 1265.21   48.96
   1   3  -5 1222.27   48.10
   1  -3   5 1217.15   46.30
  -1   3   5 1208.67   45.98
  -1  -3  -5 1254.88   58.89
   1  -3   5 1222.13   55.16
  -1  -3  -5 1280.96   54.30
   1   3  -5 1217.02   63.81
  -1  -3   5 1191.02   65.27
   1   3   5 1226.55   44.39
  -1   3  -5 1198.56   46.15
  -1  -3   5 1216.90   48.16
  -1   3  -5 1176.15   52.87
   1  -3  -5 1230.16   62.54
   1   3   5 1224.81   47.49
   1  -3  -5 1221.29   66.84
   3   3  -5  275.32   16.17
   3   3  -5  267.50   33.39
  -3   3   5  254.68   14.22
  -3   3   5  252.90   16.04
  -3  -3  -5  277.65   16.98
   3   3   5  253.64   10.32
   3  -3  -5  246.00   13.57
   3  -3  -5  251.06   38.82
   3   3   5  266.78   16.06
  -3  -3   5  258.46   13.88
  -3  -3   5  259.57   15.91
  -3  -3   5  232.20   35.66
   3  -3  -5  254.19   30.21
   5   3  -5  900.65   69.45
  -5  -3  -5  919.05   44.08
   5   3  -5  904.86   41.43
  -5   3   5  892.17   39.10
  -5   3   5  935.16   42.04
   5  -3   5  922.85   33.24
   5  -3  -5  956.31   73.49
  -5  -3   5  965.73   72.51
   5   3   5  973.73   41.14
  -5  -3   5  943.26   41.81
   5   3   5  932.73   34.78
  -5  -3   5  903.40   39.06
   5  -3  -5  939.82   41.36
   5  -3  -5  958.99   39.13
  -7  -3  -5  217.73   27.50
  -7   3   5  233.43   18.60
   7   3  -5  253.09   50.55
   7  -3   5  219.91   11.57
   7   3  -5  214.21   17.84
   7  -3   5  202.09   18.15
   7  -3   5  189.40   20.50
  -7   3   5  204.84   15.70
   7  -3  -5  224.31   15.97
  -7  -3   5  266.97   51.47
   7  -3  -5  255.98   18.20
   7   3   5  204.73   11.85
   7   3   5  254.77   24.49
   7  -3  -5  280.80   55.92
  -7  -3   5  217.42   15.85
  -7  -3   5  235.94   18.42
   9  -3   5  125.45   22.83
   9  -3   5  160.26   28.82
   9  -3   5  195.57   12.75
   9   3  -5  169.15   53.51
  -9   3   5  204.63   18.90
   9  -3  -5  203.04   48.60
  -9  -3   5  203.31   18.87
  -9  -3   5  260.99   65.90
   9  -3  -5  105.12   50.43
   9   3   5  194.17   11.77
   9   3   5  190.99   32.47
 -11   3   5   70.05   14.03
  11  -3   5   72.49   38.90
  11  -3   5  102.15   11.88
  11   3  -5  167.75   68.43
  11   3   5   77.32   41.45
  11  -3  -5   84.03   62.45
 -11  -3   5  -74.20   54.71
 -11  -3   5   78.51   14.31
   0   4  -5  166.75   18.94
   0   4   5  152.63   10.83
   0   4   5  168.81    8.96
   0  -4   5  149.71    9.96
   0  -4   5  173.14   19.85
   0  -4  -5  179.18   24.88
   0  -4  -5  196.72   18.78
   0   4  -5  156.48   10.14
   2  -4   5   91.17    6.23
   2   4  -5   91.81   21.28
  -2  -4  -5  117.11   15.00
  -2   4   5   86.31    7.25
  -2   4   5   93.24    9.14
   2   4  -5   86.12    8.60
   2  -4   5   93.00   10.15
  -2  -4   5   77.73   21.65
   2   4   5   93.65    5.45
  -2   4  -5  104.78    9.82
   2   4   5  100.07   14.29
  -2  -4   5   76.48    8.28
   2  -4  -5   85.21    6.87
   2  -4  -5   80.82   19.18
   2  -4  -5  132.24   25.92
  -4   4   5    3.92    3.89
   4   4  -5    6.66   16.06
  -4  -4  -5  -10.68    7.35
   4   4  -5    9.53    4.83
  -4   4   5    6.58    4.77
   4  -4  -5  -26.81   13.90
  -4  -4   5   10.49    5.59
   4   4   5    4.25    5.90
   4   4   5    2.29    2.27
   4  -4  -5   14.44   16.77
  -4  -4   5   -2.14   15.47
   4  -4  -5    7.15    4.23
  -4  -4   5   -1.31    3.12
   6  -4   5   38.23    4.48
  -6  -4  -5   35.93   15.38
   6   4  -5   35.16   26.13
  -6   4   5   51.37   11.10
  -6   4   5   48.53    9.18
   6   4  -5   49.47   10.60
   6  -4   5   35.02    8.25
   6  -4   5   32.39    9.23
   6   4   5   54.89    7.26
  -6  -4   5   46.27    9.87
   6  -4  -5   38.73   27.04
  -6  -4   5   39.89    7.87
   6  -4  -5   48.67    8.69
   6  -4  -5   36.28   23.73
  -6  -4   5   80.43   31.12
   6   4   5   34.54   12.25
  -8  -4  -5   16.68   19.93
   8  -4   5   16.19    5.03
   8  -4   5   25.03   11.90
   8   4  -5   20.60   32.07
   8  -4   5    6.96   15.58
  -8   4   5   13.11    7.73
  -8  -4   5   33.12   32.95
   8  -4  -5   20.82    7.31
   8   4   5   14.82    4.93
   8  -4  -5   18.27   27.82
   8  -4  -5  -13.22   30.40
  -8  -4   5   14.34    7.54
   8   4   5   -2.23   15.14
 -10   4   5   34.67   12.04
  10  -4   5   -1.24   25.40
  10   4  -5    9.79   46.15
  10  -4   5   21.31    6.62
  10  -4   5   10.28   20.86
  10   4   5   -2.21   24.64
  10  -4  -5  -23.42   39.51
 -10  -4   5   13.12    7.88
 -10  -4   5  -26.38   49.17
  10  -4  -5   35.24   50.44
  10   4   5   14.22    5.30
   1   5  -5 1799.57   84.98
   1  -5   5 1784.76   65.81
  -1   5   5 1807.22   66.09
  -1   5   5 1816.18   68.93
   1  -5   5 1702.49   77.03
  -1  -5  -5 1894.54   77.25
   1   5  -5 1741.69   67.90
   1  -5  -5 1769.39   83.84
   1   5   5 1746.82   79.08
  -1  -5   5 1772.80   67.76
  -1  -5   5 1896.89   89.09
   1  -5  -5 1819.38   65.06
  -1   5  -5 1793.09   66.04
   1  -5  -5 1763.34   90.12
  -1   5  -5 1776.42   75.04
   1   5   5 1855.36   64.75
   3   5  -5  834.31   56.03
  -3  -5  -5  706.50   38.42
  -3   5   5  741.40   33.88
   3  -5   5  740.94   31.06
   3   5  -5  714.90   33.27
  -3   5   5  734.35   31.29
   3  -5  -5  736.66   56.83
  -3  -5   5  712.61   33.09
  -3   5  -5  752.97   31.15
   3   5   5  799.58   38.32
   3  -5  -5  731.61   51.98
   3   5   5  769.83   27.95
   3  -5  -5  741.87   30.90
  -3  -5   5  660.04   53.62
   5  -5   5  614.96   26.41
  -5   5   5  569.03   30.11
  -5  -5  -5  632.44   37.53
   5   5  -5  579.36   55.15
  -5   5   5  567.50   27.52
   5   5  -5  578.70   29.96
   5  -5   5  598.16   22.50
   5  -5   5  588.59   26.59
  -5  -5   5  610.65   30.17
   5  -5  -5  556.33   51.97
  -5  -5   5  602.64   27.68
  -5  -5   5  586.38   56.91
   5  -5  -5  573.71   57.73
   5   5   5  591.57   33.79
   5   5   5  591.12   24.23
   5  -5  -5  579.35   27.53
  -7  -5  -5  141.00   26.29
   7   5  -5  140.15   41.47
   7  -5   5  146.25   17.85
  -7   5   5  163.26   15.73
  -7   5   5  160.29   14.25
   7  -5   5  140.72    9.44
   7   5  -5  156.28   15.78
   7  -5   5  169.74   21.36
   7  -5  -5  111.81   35.54
   7   5   5  221.98   26.17
   7  -5  -5  184.58   47.29
  -7  -5   5  158.36   43.20
   7   5   5  150.95   10.73
  -7  -5   5  171.21   15.91
  -7  -5   5  164.60   13.57
   7  -5  -5  156.59   13.62
   9  -5   5  131.97   22.87
   9   5  -5  220.10   61.15
  -9   5   5  210.06   19.35
  -9  -5  -5  158.63   36.04
   9  -5   5  158.49   29.95
   9  -5   5  204.81   13.12
   9  -5  -5  287.96   63.06
  -9  -5   5  163.58   59.84
   9  -5  -5  175.06   16.47
   9   5   5  209.39   13.34
   9   5   5  160.59   30.69
  -9  -5   5  190.26   18.55
   9  -5  -5  144.02   46.05
  11  -5   5   44.84   36.75
  11   5  -5   50.86   72.09
  11  -5   5   67.16   10.16
 -11   5   5   60.04   14.15
 -11  -5   5   92.54   16.77
 -11  -5   5   42.17   60.80
  11   5   5   97.24    9.97
  11  -5  -5  169.02   68.62
  11   5   5   -4.92   32.80
  11  -5  -5   86.92   55.36
   0  -6   5  143.43    9.54
   0  -6   5  141.57   21.49
   0  -6  -5  161.56   18.71
   0   6  -5  130.00    9.50
   0   6   5  175.47   24.92
   0  -6  -5  145.75    7.74
   0   6  -5  146.03   21.14
   0   6   5  137.10    8.55
  -2   6   5  240.38   13.23
   2  -6   5  243.07   19.37
  -2   6   5  236.43   15.12
  -2  -6  -5  264.06   22.76
   2   6  -5  213.13   14.25
   2   6  -5  209.71   30.22
   2  -6   5  226.07   11.21
  -2   6  -5  225.90   18.11
   2  -6  -5  266.06   13.07
  -2   6  -5  237.51   11.51
  -2  -6   5  247.77   14.72
   2  -6  -5  251.31   31.11
  -2  -6   5  243.18   30.81
   2   6   5  219.88   10.95
   2  -6  -5  203.89   25.97
   2   6   5  256.39   22.48
   4  -6   5   46.75    8.54
  -4   6   5   45.52    7.47
   4   6  -5   41.60   24.42
  -4  -6  -5   34.21   12.60
   4  -6   5   39.49    4.22
   4  -6   5   38.61    8.60
   4   6  -5   39.95    8.39
  -4   6   5   31.05    7.81
   4  -6  -5   37.66   21.78
   4  -6  -5   55.01   20.98
   4   6   5   37.49    5.22
   4  -6  -5   37.28    6.87
  -4  -6   5   28.09   22.36
   4   6   5   26.30   10.32
  -4  -6   5   43.92    8.23
   6  -6   5   17.59    9.84
  -6   6   5   19.54    6.61
  -6   6   5   14.38    6.37
   6   6  -5   19.25   26.38
   6  -6   5   27.91    4.46
  -6  -6  -5   17.88   14.57
   6   6  -5   28.47    7.53
   6  -6   5   18.70   10.83
   6  -6  -5   29.96    7.48
   6   6   5   19.02   13.90
   6   6   5   19.00    5.43
  -6  -6   5    4.36   22.10
  -6  -6   5   26.16    8.56
  -6  -6   5   26.04    6.79
   6   6   5   27.20    5.73
   6  -6  -5   63.20   26.50
   6  -6  -5    5.44   26.61
  -8   6   5   17.25    8.74
   8  -6   5    3.81   13.06
   8   6  -5    4.68   33.40
  -8  -6  -5   38.41   24.12
   8  -6   5   59.44   20.21
   8  -6   5   17.05    5.12
   8   6   5    8.13   18.96
   8   6   5   21.93    6.49
  -8  -6   5    4.95    6.32
  -8  -6   5   44.03   35.89
   8  -6  -5   24.89   30.24
   8  -6  -5   26.88   35.36
   8  -6  -5   10.80    6.95
  10  -6   5   -6.13   19.55
 -10   6   5    2.51    7.96
 -10  -6  -5   -5.75   33.09
  10  -6   5   10.72    5.98
  10  -6   5  -12.10   27.14
  10   6  -5   34.74   53.35
  10   6   5   11.08   27.29
  10  -6  -5   16.88    8.63
  10  -6  -5   20.70   42.35
 -10  -6   5   25.11   11.07
  10   6   5    8.83    5.61
 -10  -6   5   30.77   53.62
  10  -6  -5  -47.99   48.73
   1   7  -5 1545.20   77.97
  -1  -7  -5 1531.21   55.59
   1   7  -5 1516.90   60.40
  -1   7   5 1596.30   58.76
  -1   7   5 1606.56   81.45
   1  -7   5 1536.03   58.07
  -1  -7  -5 1639.41   72.92
   1  -7   5 1533.51   72.37
  -1  -7   5 1592.94   81.84
  -1   7  -5 1538.81   58.51
  -1   7  -5 1686.81   71.59
   1  -7  -5 1588.64   57.99
   1   7   5 1569.63   74.72
  -1  -7   5 1549.41   60.11
   1   7   5 1542.08   57.38
   3  -7   5  446.71   27.45
   3   7  -5  533.92   46.34
   3   7  -5  463.23   24.19
  -3   7   5  486.42   24.91
   3  -7   5  479.79   18.96
  -3  -7  -5  482.77   33.82
  -3   7   5  487.16   22.46
  -3  -7   5  497.47   24.40
   3  -7  -5  432.91   40.35
  -3  -7   5  515.78   45.98
  -3   7  -5  500.00   27.61
   3   7   5  456.61   30.84
   3  -7  -5  474.87   48.27
   3   7   5  479.52   19.77
   3  -7  -5  394.24   21.34
   5  -7   5  794.01   29.68
  -5   7   5  766.20   36.89
   5   7  -5  712.52   36.38
  -5   7   5  755.73   34.19
   5  -7   5  810.13   40.92
   5   7  -5  806.46   65.15
   5  -7   5  788.68   38.64
  -5  -7  -5  758.49   47.59
  -5  -7   5  746.86   33.84
  -5  -7   5  895.05   70.26
   5   7   5  761.68   31.45
   5   7   5  797.43   45.12
   5  -7  -5  602.48   62.78
   5  -7  -5  787.26   34.40
   5  -7  -5  838.97   63.11
  -5  -7   5  780.33   36.62
  -7   7   5  203.58   17.77
   7   7  -5  169.99   17.33
   7  -7   5  200.28   11.51
   7  -7   5  218.19   26.67
   7  -7   5  130.72   19.74
  -7   7   5  227.16   16.08
   7   7  -5  201.72   46.88
  -7  -7  -5  136.11   29.60
   7   7   5  172.51   26.80
   7  -7  -5  223.92   16.36
   7   7   5  211.79   13.64
  -7  -7   5  211.03   17.66
   7  -7  -5  193.16   48.68
  -7  -7   5  264.00   52.65
   7  -7  -5  252.45   50.72
   9  -7   5  191.80   13.44
   9   7  -5  141.78   52.36
   9  -7   5  154.29   24.78
  -9   7   5  193.28   19.71
  -9  -7  -5  200.62   40.35
   9  -7   5  200.06   32.77
  -9  -7   5  222.15   62.59
   9   7   5  183.66   13.86
   9  -7  -5  160.49   57.68
   9  -7  -5  172.16   17.18
   9  -7  -5  169.11   53.08
   9   7   5  166.09   33.60
  -9  -7   5  218.71   19.98
 -11  -7  -5   82.57   48.85
  11   7  -5  112.37   78.39
  11  -7   5   62.71   10.23
  11  -7   5   85.74   41.08
 -11   7   5   41.58   13.60
  11   7   5   89.94   40.61
  11  -7  -5   55.10   68.54
  11  -7  -5   64.36   14.39
  11   7   5   81.17   11.01
 -11  -7   5   65.91   65.97
  11  -7  -5  128.99   61.59
 -11  -7   5   84.86   16.30
   0  -8  -5   52.16    5.67
   0  -8   5   65.54   17.04
   0  -8  -5   41.84   13.70
   0   8  -5   51.25   15.12
   0  -8   5   40.20    6.30
   0   8  -5   39.16    6.09
   0   8   5   43.91    5.97
   0   8   5   69.73   16.92
   2   8  -5  139.38   27.50
  -2  -8  -5  123.72   20.64
   2  -8   5   96.90   16.71
  -2   8   5  119.93   10.95
  -2   8   5  109.71    9.04
   2   8  -5  110.12   10.10
   2  -8   5  121.51    7.58
  -2   8  -5  120.73    7.87
  -2   8  -5  133.96   17.89
   2   8   5  148.53   21.79
  -2  -8   5   86.60   21.77
   2  -8  -5  127.63    9.19
   2   8   5  110.01    7.67
   2  -8  -5  137.35   25.16
  -2  -8   5  111.80    9.98
  -4   8   5   42.30    8.04
  -4  -8  -5   48.21   15.48
   4  -8   5   87.10   14.55
   4   8  -5   60.54   10.56
   4  -8   5   59.72    6.23
  -4   8   5   60.56    8.69
   4   8  -5   56.54   24.42
   4  -8  -5   41.40   19.70
   4   8   5   55.84   14.87
   4  -8  -5   76.29    9.86
   4  -8  -5  128.13   37.77
   4   8   5   63.10    7.18
  -4  -8   5   48.60   22.55
  -4  -8   5   64.02   10.34
  -4   8  -5  102.23   16.01
  -6  -8  -5   37.60   19.79
   6   8  -5   20.11   25.66
  -6   8   5   26.74    8.83
   6  -8   5   45.72   15.87
   6  -8   5   39.73    5.65
   6   8  -5   37.34    8.77
  -6   8   5   56.57    9.67
   6  -8   5   33.58   12.76
   6   8   5   38.13   16.89
  -6  -8   5   37.72    7.46
   6   8   5   41.51    7.52
  -6  -8   5   65.87   30.46
  -6  -8   5   42.42    9.75
   6   8   5   57.72    8.99
   6  -8  -5   39.81    8.47
   6  -8  -5   21.62   28.36
   6  -8  -5    3.35   22.12
   8  -8   5   27.24   20.48
   8  -8   5   26.29   16.42
   8   8  -5   21.49   35.99
  -8   8   5   13.23    8.32
   8  -8   5   11.66    5.15
  -8  -8  -5   28.01   24.98
   8  -8  -5   14.43   35.25
   8  -8  -5   24.77   31.66
  -8  -8   5   56.12   36.34
   8   8   5   16.73    6.39
   8   8   5    4.11   21.42
   8  -8  -5   24.31    8.50
  -8  -8   5   23.09    9.60
  10   8  -5   31.40   51.01
  10  -8   5   12.97    6.46
  10  -8   5   22.43   32.31
  10  -8   5   22.19   23.11
 -10  -8  -5  -35.71   36.26
 -10   8   5   12.67    9.89
  10  -8  -5  -56.80   38.87
  10   8   5   13.16    6.91
  10   8   5   43.02   31.95
 -10  -8   5   26.68   10.59
  10  -8  -5    0.01    7.17
 -10  -8   5   -1.97   52.16
  10  -8  -5  -27.60   52.07
  -1  -9  -5  519.42   37.52
   1  -9   5  478.01   35.98
  -1   9   5  570.16   44.09
   1  -9   5  560.74   23.04
  -1   9   5  526.15   23.35
  -1  -9  -5  510.80   21.26
   1   9  -5  568.88   41.98
   1   9  -5  515.43   24.92
   1  -9  -5  497.73   40.68
  -1   9  -5  572.52   37.41
   1   9   5  561.40   40.29
  -1   9  -5  522.13   23.30
   1   9   5  487.82   22.29
  -1  -9   5  543.25   43.60
  -1  -9   5  533.46   24.69
   1  -9  -5  522.63   23.00
   3  -9   5  551.38   36.32
  -3  -9  -5  544.77   40.67
   3   9  -5  599.25   29.41
   3  -9   5  604.73   24.47
   3   9  -5  648.63   51.01
  -3   9   5  601.42   27.12
  -3   9   5  549.26   29.14
  -3  -9   5  617.37   52.85
  -3   9  -5  599.68   23.73
  -3  -9   5  642.59   29.43
  -3   9  -5  623.31   36.42
   3   9   5  602.26   25.27
   3  -9  -5  623.57   27.34
   3  -9  -5  634.26   56.56
   3   9   5  621.37   39.79
   3  -9  -5  599.71   48.07
  -5   9   5  520.54   26.70
   5  -9   5  562.84   23.29
   5   9  -5  563.43   29.91
   5   9  -5  649.24   57.21
  -5   9   5  566.86   30.21
   5  -9   5  608.12   36.61
  -5  -9  -5  523.93   43.35
   5   9   5  601.32   41.09
   5  -9  -5  522.50   51.88
  -5  -9   5  567.23   29.61
  -5  -9   5  489.66   55.60
   5  -9  -5  542.80   59.74
   5  -9  -5  562.38   27.61
   5   9   5  545.97   25.22
   7   9  -5  227.01   50.79
   7   9  -5  227.68   31.74
   7  -9   5  180.67   11.61
   7  -9   5  178.30   28.06
  -7   9   5  222.21   17.03
  -7   9   5  192.00   17.91
   7  -9   5  147.26   22.69
  -7  -9  -5  206.16   36.10
  -7  -9   5  209.28   17.92
   7   9   5  177.04   29.57
   7  -9  -5  188.44   43.25
   7  -9  -5  163.55   49.46
  -7  -9   5  197.23   49.63
   7   9   5  174.21   13.91
   7  -9  -5  134.65   14.34
   9  -9   5  184.80   36.27
   9  -9   5  140.31   26.84
   9   9  -5  129.24   51.16
   9  -9   5  183.21   13.35
  -9   9   5  157.98   20.52
  -9  -9  -5  168.60   41.86
   9   9   5  173.08   34.50
   9  -9  -5  162.35   50.91
  -9  -9   5  175.90   19.29
   9  -9  -5  168.91   17.05
   9  -9  -5  244.47   70.16
  -9  -9   5  205.17   64.56
   9   9   5  158.98   14.07
   0 -10   5    9.72    4.23
   0  10  -5   14.25    4.78
   0  10   5   18.14    4.70
   0  10   5   19.22   13.44
   0  10  -5   13.16   13.52
   0 -10  -5   15.76    4.25
   0 -10  -5    4.29   14.08
   0 -10   5   -3.38   11.11
   2  10  -5   67.03    9.12
  -2 -10  -5   56.22   18.49
   2 -10   5   69.58    7.64
  -2  10   5   81.30    9.11
   2  10  -5   79.15   21.33
  -2  10   5   89.97   24.60
  -2 -10  -5   66.69    5.52
   2 -10   5   89.67   17.75
  -2  10  -5   73.29   16.53
   2  10   5   88.83   19.75
  -2 -10   5   73.91    9.90
  -2 -10   5   15.82   15.74
   2 -10  -5   58.65    8.03
   2  10   5   66.10    7.53
   2 -10  -5   68.32   18.84
  -2  10  -5   68.74    6.52
   4 -10   5   65.76    7.33
  -4 -10  -5   73.32   21.42
   4  10  -5   67.30   10.97
  -4  10   5   59.97   10.05
   4  10  -5   77.77   26.14
  -4  10   5   81.62   10.63
   4 -10   5   67.12   16.13
  -4 -10   5   32.23   21.80
   4 -10  -5   60.21    9.34
   4  10   5   60.31   17.64
  -4  10  -5   69.40   17.43
   4 -10  -5   48.13   22.04
   4  10   5   64.56    8.42
  -4 -10   5   85.35   12.20
   4 -10  -5   61.45   28.20
   6 -10   5   21.78   15.11
   6  10  -5   12.67   27.57
  -6  10   5   46.32   10.40
   6 -10   5   55.87   18.85
   6 -10   5   41.97    6.43
  -6 -10  -5   56.38   23.64
  -6  10   5   63.25    9.69
   6  10   5   24.61   18.52
  -6 -10   5   42.04   10.10
   6  10   5   57.15    9.26
   6 -10  -5   28.10   24.46
  -6 -10   5   22.51   27.04
   6 -10  -5   49.06    9.39
   6  10   5   47.14    8.47
   6 -10  -5   66.04   35.10
   8  10  -5  -16.63   34.28
  -8  10   5   33.08   10.84
   8 -10   5   29.65    6.52
   8 -10   5   52.75   24.73
  -8 -10  -5    5.99   26.80
   8 -10   5   24.54   19.65
  -8 -10   5   33.42   10.29
   8 -10  -5    9.26    7.46
   8 -10  -5   54.10   44.40
   8 -10  -5   25.62   33.36
   8  10   5   31.18    7.93
  -8 -10   5   27.62   38.05
   8  10   5   19.92   24.33
 -10 -10  -5   24.22   43.12
  10 -10   5    6.34   25.99
  10 -10   5   47.61   36.31
 -10  10   5   20.99   10.48
  10 -10   5   14.00    7.05
  10  10  -5   29.70   54.87
 -10 -10   5  134.53   69.85
 -10 -10   5   21.14   10.50
  10  10   5   24.37   34.94
  10  10   5   10.30    7.31
  10 -10  -5  -23.95   63.53
  10 -10  -5    8.36    8.81
   1 -11   5  603.69   25.44
   1 -11   5  574.97   25.47
  -1 -11  -5  615.71   24.51
  -1 -11  -5  624.42   44.72
   1  11  -5  557.27   27.22
   1  11  -5  586.24   44.59
  -1  11   5  552.03   25.64
  -1  11   5  544.19   48.13
   1 -11   5  595.81   43.13
  -1  11  -5  599.70   41.50
  -1 -11   5  567.08   47.58
  -1  11  -5  607.66   26.04
  -1 -11   5  534.05   26.51
   1 -11  -5  576.62   43.66
   1  11   5  562.51   25.10
   1  11   5  576.64   44.23
   1 -11  -5  598.94   25.84
  -3 -11  -5  285.54   12.52
   3 -11   5  340.17   30.29
   3  11  -5  330.65   44.67
   3 -11   5  273.83   14.50
  -3 -11  -5  258.75   31.92
  -3  11   5  279.36   16.27
  -3  11   5  275.52   18.69
   3  11  -5  285.40   18.40
  -3  11  -5  266.39   26.43
  -3 -11   5  274.37   17.84
   3  11   5  326.29   31.36
  -3  11  -5  274.62   13.57
   3 -11  -5  228.30   35.66
  -3 -11   5  244.11   41.32
   3 -11  -5  289.55   16.94
   3  11   5  288.82   15.39
  -5  11   5  389.97   21.95
   5  11  -5  392.40   24.80
   5 -11   5  403.26   19.26
  -5  11   5  440.25   25.57
   5  11  -5  540.97   55.07
  -5 -11  -5  449.19   43.06
   5 -11   5  359.92   32.51
  -5 -11   5  459.46   64.49
   5 -11  -5  450.17   66.94
   5  11   5  404.94   38.37
  -5 -11   5  458.91   25.47
  -5  11  -5  424.17   35.72
   5 -11  -5  383.48   22.63
   5 -11  -5  383.03   46.61
   5  11   5  417.42   21.47
   7  11  -5  139.24   46.98
   7 -11   5  113.04   24.12
  -7 -11  -5   65.27   31.38
   7 -11   5  129.67   10.64
  -7  11   5  148.25   16.59
   7 -11   5   77.27   26.96
  -7 -11   5  128.95   44.32
  -7 -11   5  169.92   16.74
   7  11   5  132.71   12.92
   7 -11  -5   43.05   38.27
   7  11   5  134.54   30.19
   7 -11  -5  122.44   14.75
   7 -11  -5  133.50   38.21
   9 -11   5  133.31   36.47
  -9  11   5  136.31   19.56
  -9 -11  -5   29.98   37.89
   9 -11   5   77.62   26.61
   9 -11   5  102.14   12.15
   9  11  -5   81.33   53.25
   9 -11  -5   75.59   53.84
  -9 -11   5  128.16   55.27
   9  11   5  100.21   35.12
   9 -11  -5   89.09   14.10
  -9 -11   5  124.94   18.25
   9  11   5  117.78   13.18
   9 -11  -5  151.09   46.93
   0 -12  -5   25.48    5.57
   0  12  -5    4.82   13.42
   0  12  -5    5.23    4.14
   0  12   5   13.69    4.83
   0 -12   5   15.43    5.18
   0 -12   5   15.30    5.61
   0 -12   5   20.26   15.66
   0  12   5   -7.07   14.12
   2 -12   5   61.10    7.90
   2  12  -5   56.11    8.66
   2  12  -5   61.02   20.70
  -2 -12  -5   85.27   22.85
  -2  12   5   53.15    8.15
  -2  12   5   63.50   25.59
   2 -12   5   61.43   18.55
  -2 -12  -5   66.66    7.11
  -2  12  -5   62.03    7.59
   2 -12  -5   33.90   17.15
   2  12   5   59.45   19.76
  -2 -12   5   37.93   22.51
   2 -12  -5   74.77    9.23
   2  12   5   65.13    8.21
  -2 -12   5   70.06    9.71
  -2  12  -5   67.43   17.41
   4 -12   5    7.60   14.08
   4 -12   5   35.76    6.31
  -4 -12  -5   49.02    4.76
   4  12  -5   69.03   28.99
  -4  12   5   45.66    8.11
   4  12  -5   39.53    9.53
  -4  12   5   31.79    7.65
  -4 -12  -5   43.40   22.36
   4  12   5   34.86   18.56
   4 -12  -5   64.93   31.69
   4 -12  -5   37.48    8.05
   4 -12  -5   29.70   22.02
  -4 -12   5   74.01   28.49
  -4  12  -5   48.23   17.45
  -4 -12   5   35.55    8.53
   4  12   5   44.24    8.07
  -6  12   5   18.92    8.41
   6  12  -5   -6.08   28.01
  -6 -12  -5    9.92   23.73
   6 -12   5   16.47    5.38
  -6  12   5   19.83    8.16
   6 -12   5   13.14   16.70
   6  12   5   23.44    7.70
   6 -12  -5   39.75   34.35
   6 -12  -5   19.20   26.58
  -6 -12   5  -45.54   31.25
   6  12   5   30.92   21.52
   6  12   5   35.38    8.96
  -6 -12   5   26.79    8.94
   6 -12  -5   14.76    7.06
   8 -12   5    8.58    5.64
  -8 -12  -5   34.14   31.53
  -8  12   5   11.51    8.65
   8  12  -5  -19.54   36.45
   8 -12   5    5.08   21.13
   8 -12   5   15.35   25.49
   8  12   5   26.15    8.84
  -8 -12   5   17.32    9.28
  -8 -12   5   -6.72   37.74
   8  12   5   43.75   28.75
   8 -12  -5   29.48   33.38
   8 -12  -5   13.71    8.42
   8 -12  -5   19.13   44.03
  10 -12   5   41.98   41.04
  10  12  -5   22.04   59.54
 -10  12   5   12.53   10.98
 -10 -12  -5  -27.54   45.16
  10 -12   5   12.54    7.09
 -10 -12   5   22.99   72.16
  10 -12  -5  -24.56   68.23
 -10 -12   5   11.23   10.04
  10  12   5   16.22   38.94
  10 -12  -5   14.74    9.35
  10  12   5    8.56    7.16
   1 -13   5  282.42   33.59
  -1 -13  -5  294.05   15.69
  -1  13   5  331.83   39.14
   1  13  -5  306.12   18.32
   1  13  -5  288.00   33.36
  -1  13   5  292.72   16.44
   1 -13   5  316.68   16.90
   1 -13  -5  299.58   16.92
  -1 -13   5  277.44   17.29
   1  13   5  311.35   16.58
  -1 -13   5  317.20   38.79
  -1  13  -5  284.50   16.53
  -1  13  -5  285.18   32.52
   1 -13  -5  284.29   32.69
   1  13   5  313.34   36.73
  -1 -13   5  300.75   17.66
  -3  13   5  285.42   46.72
  -3 -13  -5  312.06   15.39
   3 -13   5  387.70   35.14
  -3 -13  -5  328.80   38.74
  -3  13   5  284.16   18.02
   3 -13   5  302.57   16.86
   3  13  -5  331.54   20.86
   3  13  -5  313.77   45.04
  -3 -13   5  343.87   20.44
  -3  13  -5  364.28   33.54
  -3  13  -5  326.36   15.99
   3  13   5  354.27   36.28
   3 -13  -5  353.31   38.31
   3  13   5  309.55   17.68
  -3 -13   5  361.12   53.19
   3 -13  -5  325.40   18.85
  -5 -13  -5  249.92   41.27
   5 -13   5  184.63   28.29
   5  13  -5  240.58   19.40
  -5  13   5  283.27   20.57
   5  13  -5  293.30   50.31
  -5 -13  -5  227.28   10.52
  -5 -13  -5  249.41   10.95
   5 -13   5  243.51   14.44
   5 -13  -5  248.28   17.95
   5  13   5  287.03   35.94
  -5 -13   5  221.44   47.98
   5 -13  -5  223.79   47.62
  -5  13  -5  259.89   32.02
   5 -13  -5  243.43   43.09
  -5 -13   5  243.32   18.96
   5  13   5  245.97   16.64
   7  13  -5  113.23   44.94
  -7  13   5  120.97   17.53
   7 -13   5  100.23   10.48
   7 -13   5   71.03   23.83
   7 -13   5   96.92   30.03
  -7 -13  -5   21.65   30.15
   7 -13  -5   86.85   43.99
   7  13   5  111.41   31.04
  -7 -13   5  109.39   16.05
   7 -13  -5   81.59   12.94
  -7 -13   5  117.25   49.63
   7 -13  -5   62.67   33.97
   7  13   5  111.19   14.47
   9 -13   5   80.93   38.05
   9 -13   5  115.43   31.73
   9 -13   5   83.57   11.96
  -9 -13  -5   87.78   44.70
   9  13  -5   49.25   54.98
  -9  13   5   72.50   13.63
  -9 -13   5  151.18   60.11
   9  13   5   45.14   34.84
  -9 -13   5   80.60   15.70
   9 -13  -5   78.18   14.04
   9 -13  -5   82.72   44.80
   9 -13  -5  104.95   65.48
   9  13   5  115.63   12.79
   0 -14   5   28.22    7.09
   0  14  -5   27.84    7.04
   0 -14   5   32.83    6.88
   0  14   5   28.52   20.46
   0 -14   5   -8.63   13.06
   0 -14  -5    4.08   15.73
   0 -14  -5   21.41    6.23
   0  14   5   21.35    6.07
   0  14  -5   16.81   16.81
  -2  14   5    1.86   21.41
   2 -14   5   23.05    6.25
   2  14  -5   28.14    7.70
  -2 -14  -5   35.58    6.57
   2 -14   5    5.72   16.25
  -2 -14  -5   21.98   19.73
   2  14  -5    2.41   20.32
  -2  14   5   21.43    6.45
  -2 -14   5   24.08   22.00
   2  14   5   30.42    6.95
   2 -14  -5   41.04   20.24
  -2 -14   5   21.46    6.81
  -2 -14   5   29.87    8.06
   2 -14  -5   29.18    6.94
  -2  14  -5   39.15   16.93
   2  14   5    5.71   16.27
  -2  14  -5   26.06    5.89
   4  14  -5   48.63   27.76
  -4 -14  -5   -2.35   21.30
   4 -14   5   37.98   17.72
  -4 -14  -5   35.89    5.66
  -4  14   5   29.35    9.70
   4 -14   5   17.59    5.89
  -4  14   5   33.72    7.61
   4  14  -5   27.53    8.70
  -4 -14   5   -9.56   23.10
   4  14   5   36.57    7.89
   4 -14  -5    9.62   19.55
  -4  14  -5   26.03    4.91
  -4 -14   5   33.64    9.01
  -4  14  -5   19.41   17.86
   4 -14  -5   42.13    8.92
   4  14   5   55.98   21.00
  -6  14   5   20.41    9.22
   6 -14   5   15.13    6.06
   6  14  -5   49.70   33.86
  -6 -14  -5   40.23   28.34
   6 -14  -5   25.60   27.75
  -6  14  -5   20.88   22.30
   6  14   5   16.30    7.83
   6 -14  -5  -30.76   31.67
   6  14   5   49.52   23.86
   6 -14  -5    8.98    7.51
   6  14   5   14.19    8.39
  -6 -14   5   13.33    7.93
  -6 -14   5   51.82   35.27
  -8 -14  -5    5.28   35.13
   8 -14   5   36.34   33.74
   8 -14   5    4.99   24.68
   8  14  -5   29.48   43.74
   8 -14   5    9.13    6.15
  -8  14   5   27.25   11.33
  -8 -14   5    3.83    8.53
   8  14   5    5.89    6.07
   8 -14  -5   -5.49    6.43
   8 -14  -5    5.49   43.64
   8  14   5    1.32   28.82
   8 -14  -5    8.92   38.07
  -8 -14   5  -26.06   42.34
  10 -14   5    9.56    7.30
  10 -14  -5   24.87   10.87
  -1 -15  -5  260.16   40.41
   1  15  -5  318.52   20.14
   1  15  -5  320.12   37.59
  -1  15   5  335.23   18.89
   1 -15   5  340.19   18.91
  -1 -15  -5  351.33   18.22
  -1  15   5  279.18   44.33
   1 -15   5  338.47   38.89
   1 -15  -5  344.86   38.57
  -1  15  -5  341.38   19.00
   1 -15  -5  321.31   18.76
  -1 -15   5  334.89   20.05
  -1  15  -5  384.93   38.85
  -1 -15   5  319.61   40.43
   1  15   5  288.33   42.78
   1  15   5  306.19   18.31
  -1 -15   5  322.28   19.34
  -3  15   5  269.54   49.68
   3  15  -5  228.34   17.87
  -3 -15  -5  163.99   34.47
   3  15  -5  206.54   39.10
   3 -15   5  213.13   34.56
  -3  15   5  208.76   14.95
   3 -15   5  198.93   13.96
  -3 -15  -5  227.92   13.38
  -3  15  -5  245.40   13.65
   3 -15  -5  197.51   15.41
  -3 -15   5  206.46   16.84
   3 -15  -5  140.20   31.52
  -3  15  -5  164.87   28.45
  -3 -15   5  228.71   17.24
   3  15   5  171.80   32.07
   3  15   5  225.95   15.46
  -3 -15   5  217.51   44.68
   5  15  -5  209.51   21.11
   5 -15   5  178.05   13.31
  -5 -15  -5  143.97   38.55
   5  15  -5  217.21   46.62
  -5  15   5  175.82   17.32
  -5 -15  -5  189.27   11.04
  -5 -15   5  187.15   17.26
   5  15   5  215.44   37.07
  -5 -15   5  186.07   46.60
   5 -15  -5   95.34   32.09
  -5  15  -5  140.33   28.22
   5  15   5  191.10   15.30
  -5 -15   5  182.83   16.72
   5 -15  -5  168.33   15.60
   5 -15  -5  247.09   55.99
   7 -15   5   36.87   30.90
  -7  15   5   63.83   13.18
   7 -15   5   82.88   10.72
   7 -15   5   31.37   24.76
   7  15  -5  100.83   48.50
  -7 -15  -5  106.43   41.81
   7 -15  -5   72.57   13.05
   7  15   5   57.56   32.61
   7  15   5   84.94   12.62
  -7 -15   5   70.45   13.71
  -7 -15   5   45.52   43.04
   7 -15  -5   71.85   36.39
   7 -15  -5   87.43   52.02
  -7 -15   5  105.49   16.34
   9  15  -5   26.74   55.46
   9 -15   5  -36.79   41.41
  -9  15   5   53.75   13.83
  -9 -15  -5   24.83   45.08
   9 -15   5   42.66    9.32
  -9 -15   5   45.72   12.82
   9  15   5   35.41   40.94
  -9 -15   5   49.57   14.34
   9 -15  -5   47.79   12.58
   9 -15  -5    7.52   45.34
  -9 -15   5  162.54   67.71
   9 -15  -5   -7.01   61.13
   0 -16   5   29.61   24.22
   0 -16  -5  109.99   27.63
   0  16  -5  101.69   27.30
   0  16   5  147.39   34.96
   0 -16  -5  102.58   11.76
   0 -16   5   75.47   10.64
   0  16  -5   77.42   11.31
   0  16   5   96.05   11.37
   2 -16   5   90.33   10.90
   2  16  -5   95.42   13.13
  -2  16   5   96.79   11.96
  -2  16   5   66.31   27.00
   2  16  -5  137.64   34.65
   2 -16   5   84.21   26.14
  -2 -16  -5   90.50   10.46
  -2 -16   5   82.80   12.23
  -2 -16   5   94.28   12.96
   2  16   5   62.99   26.41
   2 -16  -5   55.58   23.57
  -2  16  -5   80.47   10.22
  -2 -16   5   89.17   32.55
   2 -16  -5   81.77   11.16
  -2  16  -5  106.24   25.76
   2  16   5   97.03   11.65
  -4  16   5   -1.82   29.06
   4  16  -5   41.62   11.07
  -4 -16  -5   31.51    6.51
  -4 -16  -5   53.68   27.84
   4  16  -5   80.38   30.53
  -4  16   5   18.60    7.71
   4 -16   5   16.95    6.46
  -4 -16   5  -11.37   32.44
  -4 -16   5   21.09    8.25
  -4  16  -5   20.56   19.94
   4  16   5   20.55   22.56
  -4 -16   5   39.12   10.21
  -4  16  -5   51.35    7.01
   4 -16  -5   38.39    9.46
   4  16   5   28.03    8.33
   4 -16  -5   33.87   23.34
  -6  16   5   13.81    8.57
  -6 -16  -5   14.22    4.60
   6  16  -5   19.19   35.92
  -6 -16  -5   19.68    4.31
  -6 -16  -5   25.62   32.09
   6 -16   5   17.64    6.87
  -6 -16   5   -4.04   35.26
   6 -16  -5  -11.98   26.36
   6  16   5   14.23    7.43
   6 -16  -5   -6.42   37.73
   6 -16  -5    4.26    7.94
   6  16   5   24.78   24.68
  -6 -16   5   10.68    8.23
   6  16   5   17.98    8.54
  -6  16  -5   13.81   23.88
  -6 -16   5   10.00    8.88
   8 -16   5    9.85    6.97
   8 -16   5  -11.09   27.92
  -8 -16  -5   25.59   40.77
  -8  16   5    2.82    8.77
   8  16  -5  -12.15   46.19
   8 -16   5   22.23   37.68
   8 -16  -5   97.03   60.26
   8 -16  -5    1.89    7.96
   8  16   5  -16.83   32.53
  -8 -16   5    1.65    8.34
  -8 -16   5   24.76   10.95
   8 -16  -5   26.69   39.66
  -8 -16   5   35.11   49.83
   1 -17   5  275.68   41.68
  -1  17   5  289.61   48.71
   1 -17   5  264.95   17.74
  -1 -17  -5  287.69   17.46
   1  17  -5  255.08   18.80
   1  17  -5  257.75   43.31
  -1  17   5  271.30   17.79
  -1 -17  -5  282.59   44.15
  -1  17  -5  277.18   39.07
  -1  17  -5  272.67   17.74
   1 -17  -5  256.37   40.52
   1  17   5  268.98   17.94
  -1 -17   5  198.00   38.29
   1  17   5  323.59   48.87
  -1 -17   5  282.32   18.84
   1 -17  -5  274.41   18.05
  -3  17   5  159.98   41.92
   3 -17   5  171.51   13.67
   3  17  -5  142.42   38.33
  -3 -17  -5  179.79   13.00
   3 -17   5   99.86   27.59
   3  17  -5  159.99   16.35
  -3 -17  -5  103.31   32.45
   3  17   5  223.15   37.83
  -3  17  -5  134.35   29.06
  -3 -17   5  159.03   16.01
  -3 -17   5  159.62   15.46
   3 -17  -5  164.38   14.59
   3 -17  -5  180.75   35.36
  -3  17  -5  154.41   12.15
   3  17   5  165.97   14.82
  -3 -17   5  145.80   38.90
  -5 -17  -5  111.07   10.29
   5  17  -5  174.30   44.15
  -5  17   5  134.58   19.08
   5 -17   5  124.21   12.29
  -5 -17  -5  123.82   39.76
   5  17   5  137.54   15.73
  -5  17  -5   93.50   30.45
   5 -17  -5  139.94   16.77
   5  17   5   90.43   30.10
  -5 -17   5  139.57   17.52
  -5 -17   5  118.61   44.38
  -5 -17   5  114.34   16.26
   5 -17  -5  135.31   37.55
  -7 -17  -5   64.52    6.15
  -7  17   5   50.56   13.65
   7 -17   5   38.02    8.69
  -7 -17  -5   80.82   45.43
   7 -17   5   43.19   26.89
   7  17  -5   -7.22   44.84
  -7 -17   5   51.42   12.36
   7 -17  -5   33.17   10.54
   7 -17  -5  -42.98   45.33
   7  17   5  -13.38   29.41
  -7 -17   5  -17.52   48.39
   7 -17  -5   -2.05   38.24
  -7 -17   5   53.22   13.23
   9 -17   5  -27.66   47.36
  -9  17   5   26.53   13.74
   9  17  -5   98.54   72.87
  -9 -17  -5    9.04   55.21
   9 -17   5   38.53    9.77
   9 -17  -5    0.18   73.49
  -9 -17   5   53.31   14.43
  -9 -17   5   58.69   14.26
   9 -17  -5   46.13   12.70
  -9 -17   5   71.59   68.24
   9  17   5    7.17   44.33
   0  18   5  122.89   35.86
   0 -18  -5   54.27   24.38
   0 -18  -5   61.57   10.31
   0  18  -5   76.61   11.98
   0  18   5   66.94   10.38
   0 -18   5   40.22   25.66
   0 -18   5   88.06   11.98
   0  18  -5   51.45   23.78
   2  18  -5   46.83   11.01
  -2  18   5   89.58   34.77
  -2  18   5   41.02    8.80
   2 -18   5   52.04    9.52
  -2 -18  -5   22.66   26.67
  -2 -18  -5   37.82    8.16
   2 -18   5   42.35   25.94
   2  18  -5   14.64   24.64
   2 -18  -5   13.19   23.22
  -2  18  -5   45.16    8.90
  -2 -18   5   30.76   29.23
  -2 -18   5   45.23    9.99
   2 -18  -5   56.06   10.54
   2  18   5   35.70    8.61
  -2  18  -5   50.18   24.54
   2  18   5   28.52   26.79
   4 -18   5   34.22    8.13
   4  18  -5   -0.47   29.57
  -4 -18  -5   47.11   31.34
  -4 -18  -5   34.23    7.65
  -4  18   5   37.14   31.60
   4 -18  -5   11.60   24.94
   4  18   5   32.34    9.07
  -4 -18   5   32.48   10.02
  -4  18  -5    8.43   24.30
   4 -18  -5   34.50    9.63
  -4 -18   5   40.30   10.45
  -4 -18   5   42.53   38.27
  -4  18  -5   33.13    6.94
   4  18   5   46.70   27.72
  -6 -18  -5   10.89    4.49
   6 -18   5   30.96   26.59
  -6 -18  -5   16.49   38.22
  -6  18   5   15.55   10.60
  -6 -18  -5   23.75    6.09
   6  18  -5   10.49   35.82
   6 -18   5    6.35    6.57
  -6  18  -5   29.22   30.13
   6 -18  -5   75.09   56.23
  -6 -18   5   20.21   10.55
   6 -18  -5   41.13   37.86
   6  18   5   33.28   28.89
  -6 -18   5   20.33   10.20
   6 -18  -5    5.09    7.92
  -6 -18   5   46.43   44.85
   8  18  -5    7.97   54.43
   8 -18   5    1.56    6.31
  -8  18   5   14.00   11.28
   8 -18   5  -16.91   43.43
  -8 -18  -5  -23.63   47.14
  -8 -18   5  -83.86   53.71
   8 -18  -5   72.56   64.86
  -8 -18   5    2.19    7.84
  -8 -18   5    1.18    9.61
   8 -18  -5  -13.58   39.67
   8 -18  -5   15.06   10.14
   8  18   5   -9.44   39.37
  -1 -19  -5  139.16   13.56
   1  19  -5  136.05   15.19
   1  19  -5  108.43   35.31
  -1 -19  -5  132.01   34.60
  -1  19   5  127.53   14.66
   1 -19   5  146.74   15.50
   1 -19   5  137.38   36.31
  -1  19   5  104.53   35.08
   1  19   5  127.98   38.32
  -1 -19   5  129.89   40.09
   1 -19  -5  134.49   15.12
   1 -19  -5   96.73   31.96
   1  19   5  141.53   13.59
  -1 -19   5  141.28   16.10
  -1  19  -5  152.10   33.60
  -1  19  -5  143.04   13.96
  -3 -19  -5   87.09   11.08
   3 -19   5  105.46   12.45
   3  19  -5   45.15   31.80
  -3 -19  -5   36.53   47.51
   3  19  -5  115.54   18.02
  -3  19   5  108.79   40.88
   3 -19  -5   86.52   13.43
   3  19   5   47.18   29.41
  -3 -19   5   87.06   13.94
  -3  19  -5   22.24   24.58
  -3  19  -5  105.26   12.38
   3  19   5  103.63   13.88
  -3 -19   5   75.82   37.06
   3 -19  -5  119.88   37.87
  -5  19   5   56.85   43.40
   5 -19   5   36.47   27.40
  -5  19   5   81.08   16.90
   5 -19   5   73.46   10.98
  -5 -19  -5   75.95   40.42
  -5 -19  -5   70.29    9.94
   5  19  -5   57.00   40.46
   5 -19  -5   57.85   12.24
  -5 -19   5   21.77   38.28
  -5  19  -5   78.62   34.99
   5  19   5   32.59   28.45
  -5  19  -5   70.60    8.79
  -5 -19   5   78.43   13.97
  -5 -19   5   74.04   14.57
   5 -19  -5   76.85   34.49
   7  19  -5    7.44   51.61
  -7  19   5   23.63   11.19
   7 -19   5   30.02    8.91
  -7 -19  -5   51.73    6.91
  -7 -19  -5   -4.13   46.95
   7 -19   5   46.83   33.76
   7 -19  -5   46.03   12.62
   7  19   5   -9.16   34.85
  -7 -19   5   45.80   12.76
   7 -19  -5   13.00   57.98
  -7  19  -5    7.03   35.70
  -7 -19   5   21.04   63.00
   7 -19  -5   56.34   40.47
  -7 -19   5   49.74   13.29
   0  20  -5    7.57    7.43
   0 -20  -5    1.93    6.61
   0 -20  -5   -8.53   24.44
   0  20  -5    6.38   23.35
   0 -20   5   12.19    7.88
   0  20   5   10.15   25.22
   0 -20   5   12.78   30.02
   2 -20   5    3.46    6.75
  -2 -20  -5   38.52   33.05
  -2  20   5  -21.41   32.00
   2  20  -5   11.39    8.23
   2  20  -5   14.42   28.80
  -2 -20  -5    8.83    6.82
   2 -20  -5   40.54   27.66
  -2 -20   5   17.26    8.47
   2 -20  -5   11.69    7.65
  -2 -20   5    8.99   30.55
  -2  20  -5   -0.21    5.91
  -2  20  -5   24.34   24.32
   2  20   5  -10.53   23.46
   4 -20   5    3.69   26.97
  -4  20   5   60.23   43.16
   4 -20   5    4.72    6.96
   4  20  -5  -13.16   32.12
  -4 -20  -5   16.29    7.12
  -4 -20   5    9.94    8.42
   4 -20  -5   -0.05   27.86
  -4 -20   5   25.57   36.04
   4  20   5   33.73   28.84
  -4  20  -5    7.90    6.11
  -4  20  -5   -3.12   27.05
   4 -20  -5    1.41    7.39
  -6 -20  -5    2.97   44.07
  -6  20   5   15.41   10.77
   6 -20   5   26.04   31.75
  -6 -20  -5   11.66    6.35
   6 -20   5   13.80    7.70
   6  20  -5   29.87   44.55
   6 -20  -5  -30.19   51.38
  -6 -20   5   -3.74   45.49
   6  20   5   16.53   32.24
  -6 -20   5    6.87    9.79
  -6  20  -5   23.33   36.05
   6 -20  -5    5.92    8.69
   6 -20  -5   21.46   33.92
   8 -20   5   -1.00    7.02
  -8  20   5   10.45    9.93
  -8 -20  -5   -0.48    1.02
  -8 -20  -5    0.60    1.18
  -8 -20   5   17.27   10.70
   8 -20  -5    4.32    9.25
  -1 -21  -5   64.99   11.37
   1  21  -5   92.63   14.08
   1 -21   5   68.65   11.79
  -1 -21  -5   62.04   32.58
  -1  21   5   88.85   44.40
   1  21  -5   55.93   32.18
   1 -21  -5   43.94   31.16
   1 -21  -5   55.38   11.23
  -1 -21   5   71.05   38.63
   1  21   5  106.38   41.28
  -1 -21   5   72.87   12.89
  -1  21  -5   70.42   11.78
  -1  21  -5   66.36   28.27
  -3  21   5   52.40   40.53
   3 -21   5   51.77   10.48
  -3 -21  -5   30.19    8.60
   3 -21   5   35.37   31.60
   3  21  -5   54.02   35.15
  -3 -21  -5   17.93   33.74
   3 -21  -5    3.04   31.55
   3 -21  -5   52.63   11.60
  -3  21  -5   32.90   28.53
  -3 -21   5   68.25   40.54
  -3 -21   5   27.40   10.27
  -3  21  -5   58.51   10.14
   3  21   5    4.73   27.80
   5  21  -5   77.70   48.80
  -5  21   5   24.45   10.60
   5 -21   5   21.81   32.47
   5 -21   5   74.14   11.62
  -5  21   5   66.05   46.62
  -5 -21  -5  -17.75   45.80
  -5 -21  -5   52.03    9.38
   5 -21  -5   36.46   36.71
  -5 -21   5   20.96   46.08
   5 -21  -5   48.33   12.36
  -5 -21   5   69.46   13.68
  -5  21  -5   69.66   40.50
   5  21   5   85.48   34.13
  -7 -21  -5  -71.86   53.90
  -7 -21  -5   21.32    6.31
   7 -21   5   18.79    9.14
  -7  21   5   33.46   13.04
   7  21  -5  -24.85   61.15
   7 -21  -5   62.21   76.26
   7 -21  -5   54.25   47.03
   7  21   5   14.13   41.77
  -7 -21   5   36.60   12.37
   7 -21  -5   25.85   11.21
   0 -22   5    6.60    7.99
   0  22   5   16.76   32.46
   0  22  -5   39.77   28.29
   0 -22  -5    9.31   32.29
   0 -22  -5   15.04    8.50
   0  22  -5    9.54    8.02
  -2 -22  -5   10.35    8.25
   2  22  -5  -17.86   30.13
  -2  22   5   45.12   38.66
   2 -22   5    6.69    7.66
   2 -22   5   22.43   29.38
  -2 -22  -5   25.53   34.02
   2 -22  -5   18.59   30.28
  -2  22  -5    7.10    7.07
  -2 -22   5   16.08    9.11
   2  22   5   14.42   33.62
   2 -22  -5   19.00    8.86
  -2  22  -5   12.12   25.45
  -4 -22  -5   -1.38   36.15
  -4 -22  -5   12.62    7.44
   4 -22   5   12.78    8.49
   4  22  -5  -35.04   40.91
   4 -22   5   35.36   32.53
  -4  22   5   35.60   46.21
   4 -22  -5   13.39    9.42
   4 -22  -5   44.55   38.17
  -4  22  -5    6.01    6.59
  -4 -22   5    2.72    8.84
  -4  22  -5   -9.48   30.45
   4  22   5    5.93   29.33
   6 -22   5    9.95    7.53
   6  22  -5  -31.36   47.01
  -6 -22  -5  -16.03   50.13
  -6 -22  -5   11.97    6.89
   6 -22   5    5.63   60.89
  -6  22   5   10.28    9.07
   6  22   5  -33.11   32.37
  -6 -22   5   15.88   10.49
   6 -22  -5   44.49   41.13
   6 -22  -5   14.26    9.58
  -6  22  -5   63.78   44.74
  -1  23   5   18.50   39.31
   1 -23   5   91.99   41.19
  -1 -23  -5   29.59    9.72
  -1 -23  -5   -8.68   39.26
   1  23  -5   34.94   38.09
   1 -23   5   34.45   10.36
   1 -23  -5   42.35   10.98
  -1  23  -5    6.10   31.97
   1 -23  -5   46.31   35.15
  -1  23  -5   63.52   11.93
  -1 -23   5  -37.07   58.38
   1  23   5  -12.24   34.62
  -1 -23   5   43.64   11.95
   3 -23   5   38.55   37.24
  -3 -23  -5   39.33   38.59
   3  23  -5   84.98   41.77
  -3 -23  -5   47.58   10.13
   3 -23   5   53.51   11.35
  -3  23   5   27.37   44.92
  -3 -23   5   55.79   12.75
  -3  23  -5   50.75   10.73
   3 -23  -5   39.49   11.29
  -3  23  -5    6.59   28.75
   3  23   5   83.80   37.19
   3 -23  -5   67.95   40.62
   5 -23   5   32.44   10.06
  -5  23   5   -7.47   51.63
   5  23  -5   39.15   51.13
  -5 -23  -5   24.56    8.64
   5 -23   5    2.73   39.01
  -5 -23   5   20.64   11.58
   5 -23  -5    0.85   42.93
  -5  23  -5   -4.27   39.35
   5 -23  -5   23.42   10.99
   5  23   5   25.48   40.27
   0  24   5   -7.28   39.15
   0  24  -5   -7.98   31.16
   0 -24   5   -8.81   36.92
   0 -24  -5  -11.16   37.83
   0 -24  -5    5.61    8.31
   0 -24   5   22.35   10.11
  -2  24   5   85.26   52.87
   2 -24   5   30.26   39.43
   2  24  -5    9.13   42.24
   2 -24   5   15.76    9.28
  -2 -24  -5   11.24    8.45
  -2 -24  -5  -50.14   34.01
  -2 -24   5   16.74   41.03
  -2  24  -5  -70.79   29.26
  -2 -24   5   12.87    9.77
  -2  24  -5    7.21    7.81
   2  24   5    2.96   41.20
   2 -24  -5   23.61   37.04
   2 -24  -5   24.78   10.48
   4  24  -5   73.32   47.50
  -4 -24  -5   25.51   46.20
  -4  24   5   40.20   53.86
   4 -24   5  -12.31   38.77
   4 -24   5    3.90    7.84
  -4 -24  -5   -0.86    7.68
  -4 -24   5   -2.68   52.05
  -4  24  -5   18.49    7.87
   4  24   5   24.70   43.02
  -4 -24   5    5.93    9.97
  -4  24  -5   73.46   43.61
   4 -24  -5   43.27   40.48
   4 -24  -5    1.43    9.00
   6 -24   5    8.31    8.12
  -6 -24  -5    1.21    6.96
   6 -24  -5   13.37   10.85
   1 -25   5  -12.63   41.92
  -1 -25  -5    0.98   40.06
  -1  25   5  -38.26   42.30
  -1 -25  -5   26.03   10.19
   1 -25   5   21.50   10.28
   1  25  -5    8.91   41.27
  -1 -25   5    2.07   39.24
   1 -25  -5   33.08   11.07
  -1  25  -5   59.97   36.05
  -1 -25   5   53.06   13.12
   1  25   5   15.09   47.17
   1 -25  -5  -28.12   37.40
   3 -25   5  -12.62   43.72
  -3 -25  -5   49.97   54.56
  -3 -25  -5   12.36    8.88
   3 -25   5   21.51    9.37
   3  25  -5   17.04   46.39
  -3  25   5   -8.31   56.22
   3 -25  -5  -34.31   45.64
   3  25   5   37.68   45.99
  -3  25  -5   27.73   40.93
  -3  25  -5   21.44    9.45
   3 -25  -5    8.11    9.81
  -3 -25   5    7.42   10.34
  -3 -25   5   -3.88   56.25
  -5  25   5   26.08   65.00
  -5 -25  -5   -8.79   62.28
   5  25  -5   21.63   54.07
  -5 -25  -5   20.84    8.67
   5 -25   5    5.29    8.12
  -5 -25   5   12.18   10.20
  -5 -25   5   16.14   61.76
   5  25   5   -8.25   45.96
   5 -25  -5    5.28    9.73
   5 -25  -5  -89.98   45.60
  -5  25  -5    1.22    3.08
   0 -26  -5   39.29   46.43
   0 -26   5   30.39   11.35
   0 -26   5  -76.15   45.77
   0  26  -5  -41.93   34.44
   0 -26  -5   12.36    9.33
   0  26   5   -3.54   51.99
  -2 -26  -5    1.68    8.15
   2 -26   5   80.72   51.75
   2  26  -5   38.00   46.19
  -2  26   5  -31.02   58.25
   2 -26   5    7.39    8.83
  -2 -26  -5  -27.71   47.40
   2  26   5   -5.17   48.74
  -2 -26   5   14.72   10.38
  -2 -26   5  -31.49   50.35
   2 -26  -5   38.05   44.73
  -2  26  -5   -1.27   41.17
   2 -26  -5   14.82   10.23
  -4  26   5   21.97   73.81
  -4 -26  -5    9.72   57.62
   4  26  -5   54.99   57.75
  -4 -26  -5    3.04    8.15
   4 -26   5   21.71   10.09
   4  26   5  -26.15   44.46
  -4  26  -5   -6.91    4.05
   4 -26  -5    1.00    9.31
  -4 -26   5    7.00   10.23
   4 -26  -5   -9.01   46.23
  -4 -26   5    5.01   60.29
   1  27  -5   48.48   50.42
   1 -27   5   19.97   52.18
  -1  27   5  -64.42   53.44
  -1 -27  -5    8.37    9.57
   1 -27   5   27.95   10.98
  -1 -27  -5   40.66   49.18
   1  27   5   58.00   60.71
  -1  27  -5   14.29   40.36
  -1 -27   5   12.28   10.64
   1 -27  -5   -2.40   48.73
   1 -27  -5   17.85   10.56
  -1 -27   5  -41.62   46.83
  -3 -27  -5   13.85    9.15
   3 -27   5   14.54    9.62
   3 -27  -5   10.59   10.61
  -3 -27   5    7.98   10.30
   0 -28  -5   15.65    9.93
   0   0   6 1177.96   47.56
   0   0  -6 1154.91   58.76
   0   0  -6 1250.44   62.31
   0   0   6 1191.47   44.11
  -2   0   6  537.06   26.26
  -2   0   6  531.78   44.49
   2   0  -6  498.65   25.42
  -2   0   6  509.45   23.16
  -2   0  -6  541.85   24.47
  -2   0  -6  548.15   23.48
   2   0   6  537.62   23.46
   2   0  -6  549.99   45.19
   4   0   6  709.65   27.94
  -4   0   6  733.63   34.36
  -4   0   6  680.47   30.91
  -4   0   6  635.32   59.14
   4   0  -6  782.89   61.85
   4   0  -6  681.90   33.20
  -6   0   6  766.33   35.91
   6   0  -6  832.69   74.47
   6   0  -6  841.15   39.26
   6   0   6  783.70   29.28
  -6   0   6  812.14   39.35
  -6   0   6  683.88   68.55
  -8   0   6  210.77   55.31
   8   0   6  210.28   11.83
   8   0  -6  294.14   60.65
  -8   0   6  227.53   19.82
  10   0  -6   97.09   66.50
  10   0   6   94.49   21.54
  10   0   6   76.80   19.68
 -10   0   6  106.78   17.87
  -1   1   6   76.36   10.01
   1   1  -6   73.62    7.95
  -1   1   6   61.21    6.12
   1  -1   6   65.12    7.05
  -1  -1  -6   73.52   12.31
   1   1  -6   91.07   19.30
  -1  -1  -6   66.34   13.74
   1  -1  -6   89.50   18.20
  -1  -1   6   84.29    6.47
  -1   1  -6   71.78   12.23
   1  -1  -6   51.40   16.81
  -1   1  -6  111.29   14.95
  -1  -1   6   83.54    8.47
   1   1   6   66.63    7.23
   1   1   6   69.67    5.00
  -1  -1   6   64.55   18.09
  -3   1   6   46.80    6.99
  -3   1   6   36.38    8.38
   3   1  -6   34.14    7.18
   3  -1   6   45.16    5.77
  -3   1   6   17.02   15.87
   3   1  -6   34.11   17.93
   3  -1  -6   34.47   17.45
   3   1   6   39.19    6.06
  -3  -1   6   31.12    7.14
   3  -1  -6   36.61    8.25
  -3  -1   6   40.77    6.52
  -3  -1   6   48.38   19.96
  -5   1   6  118.67   15.13
   5   1  -6   82.55   11.15
   5   1  -6  154.38   36.63
  -5   1   6  142.15   36.01
  -5   1   6   97.49    9.97
  -5  -1   6  173.37   40.79
   5   1   6   92.21    7.01
   5  -1  -6  117.51   34.10
   5  -1  -6  101.65   14.09
  -5  -1   6  101.92   10.43
  -5  -1   6  102.24   13.75
   7  -1   6   83.01    6.41
   7   1  -6  121.04   16.36
  -7   1   6   33.78   34.94
  -7   1   6   63.65   11.40
   7   1  -6  158.53   44.29
   7  -1  -6  111.08   40.53
   7  -1  -6  101.30   14.30
  -7  -1   6   54.49   41.23
  -7  -1   6  102.62   15.59
   9   1  -6   59.71   50.30
   9  -1   6   16.67   12.13
   9  -1   6    2.64    3.99
  -9   1   6   -5.26    6.37
   9  -1   6   15.20   10.03
   9   1   6  -17.41   14.24
  -9  -1   6  -34.25   39.80
   9  -1  -6   23.59   43.73
   9   1   6   -3.95   12.55
  -9  -1   6   12.90    9.07
   0   2   6  713.48   27.30
   0   2  -6  658.55   29.39
   0   2   6  718.70   30.69
   0  -2   6  684.58   29.88
   0  -2   6  660.49   42.55
   0   2  -6  681.89   41.66
   0  -2  -6  667.48   40.53
   0  -2  -6  674.02   43.77
  -2   2   6  880.98   36.59
   2   2  -6  918.98   60.11
   2  -2   6  901.50   36.11
  -2  -2  -6  852.23   39.90
  -2  -2  -6  941.50   43.21
  -2   2   6  906.80   39.90
   2   2  -6  880.10   39.05
  -2   2  -6  904.37   35.76
  -2  -2   6  902.38   36.39
   2   2   6  924.42   37.19
  -2  -2   6  963.16   62.27
  -2  -2   6  939.83   39.78
   2  -2  -6  921.59   61.72
   2   2   6  951.03   33.40
  -2   2  -6  937.82   36.20
   2  -2  -6  990.38   59.77
   4   2  -6  682.56   57.28
   4   2  -6  592.99   30.09
  -4   2   6  624.42   31.07
  -4   2   6  592.94   27.85
   4  -2   6  617.62   23.78
  -4  -2   6  634.32   30.92
   4  -2  -6  575.19   29.82
  -4  -2   6  613.90   57.28
  -4  -2   6  600.12   27.71
   4  -2  -6  660.93   57.71
   6  -2   6  490.97   19.09
   6   2  -6  497.40   28.23
  -6   2   6  493.94   26.05
   6   2  -6  624.03   65.78
  -6   2   6  492.90   28.64
   6  -2  -6  542.63   28.71
  -6  -2   6  451.81   57.28
   6  -2  -6  589.97   62.46
   6   2   6  455.96   20.68
  -6  -2   6  500.03   25.93
  -6  -2   6  530.82   28.99
   8  -2   6  235.45   12.68
  -8   2   6  266.42   21.60
   8   2  -6  314.57   58.48
   8  -2  -6  284.42   61.44
   8   2   6  211.77   19.41
  -8  -2   6  324.64   64.83
   8   2   6  230.95   20.68
  -8  -2   6  238.41   20.60
 -10   2   6   89.70   17.34
  10  -2   6   73.10   19.73
  10  -2   6   42.99   15.77
  10  -2   6   79.51    9.59
  10   2  -6  116.38   60.89
 -10  -2   6   53.70   12.72
  10  -2  -6  169.45   61.94
 -10  -2   6   89.21   66.43
  10  -2  -6  163.57   68.57
  10   2   6   71.04   23.69
  10   2   6   42.45   21.16
   1   3  -6   14.77   13.51
   1  -3   6   27.36    5.05
   1  -3   6   19.76   10.12
  -1  -3  -6   10.29    8.24
  -1   3   6   28.88    5.05
  -1  -3  -6   21.42   11.37
  -1   3   6   15.19    5.11
   1   3  -6   23.43    5.25
  -1  -3   6   24.02   14.46
   1  -3  -6    0.58   10.54
  -1   3  -6   20.13    9.35
  -1  -3   6   29.47    6.26
   1   3   6   26.90    4.00
   1   3   6   26.13    6.02
   1  -3  -6   19.02   14.94
  -3   3   6   15.69    5.05
   3   3  -6   -4.94   16.76
  -3  -3  -6   12.11    6.28
   3  -3   6   17.85    3.67
  -3   3   6   17.41    6.67
   3   3  -6   12.11    4.87
  -3  -3  -6   25.62    7.40
  -3  -3   6   12.86    4.63
   3   3   6   18.39    2.75
   3  -3  -6   42.10   18.34
  -3  -3   6  -11.28   16.86
   3  -3  -6   22.72   17.75
  -3  -3   6    7.54    4.83
   5   3  -6   59.78   27.53
  -5   3   6   58.71    9.32
   5   3  -6   44.83    8.54
  -5   3   6   66.20   11.70
  -5  -3   6   56.20   10.05
   5  -3  -6   64.56    9.97
   5  -3  -6   30.45   20.95
   5   3   6   58.61    5.04
  -5  -3   6   74.11   10.12
  -5  -3   6   39.57   29.48
   5  -3  -6   42.87   27.10
  -7   3   6   52.53   10.92
   7   3  -6   69.96   13.37
   7  -3   6   56.90    5.55
   7   3  -6   83.32   38.16
   7   3   6   36.42   10.11
  -7  -3   6   44.47   35.47
   7  -3  -6   84.15   39.20
   7  -3  -6  103.57   37.76
  -7  -3   6   61.84   11.85
   7   3   6   57.14    6.54
   7  -3  -6   64.86   10.87
   7   3   6   53.65   10.08
   9   3  -6    5.90   45.10
  -9   3   6    2.69    7.54
   9  -3   6   -2.25   10.63
   9  -3   6    2.80    4.29
   9  -3  -6    3.70   37.99
  -9  -3   6   -1.56    7.19
   9   3   6   20.90   17.12
   9  -3  -6  -26.02   41.71
   9   3   6   13.94   16.30
  -9  -3   6   48.55   50.85
   0   4  -6  920.63   49.27
   0   4   6  887.74   33.74
   0  -4   6  824.11   49.90
   0   4   6  884.62   37.13
   0  -4   6  895.37   36.01
   0  -4  -6  799.07   47.05
   0   4  -6  838.26   35.67
   0  -4  -6  806.50   52.50
   2  -4   6  672.99   27.47
  -2  -4  -6  664.13   35.97
   2   4  -6  651.20   48.58
  -2  -4  -6  669.90   38.89
  -2   4   6  661.98   28.65
  -2   4   6  689.34   31.96
   2   4  -6  666.76   31.03
   2  -4   6  675.74   32.01
  -2  -4   6  744.05   31.75
   2   4   6  679.71   25.88
  -2  -4   6  746.76   54.00
   2  -4  -6  595.64   51.05
  -2   4  -6  640.28   30.93
   4   4  -6  565.21   54.68
  -4   4   6  572.40   29.81
   4   4  -6  569.07   29.17
  -4   4   6  553.92   26.51
  -4  -4  -6  577.49   28.71
   4   4   6  575.71   21.85
   4  -4  -6  584.05   56.09
   4  -4  -6  555.09   50.75
  -4  -4   6  560.85   54.71
  -4  -4   6  570.41   26.51
   4   4   6  574.30   27.35
  -4  -4   6  563.44   29.07
   6   4  -6  363.90   23.92
   6   4  -6  424.22   61.47
  -6   4   6  393.68   22.07
   6  -4   6  398.03   15.80
  -6  -4  -6  389.24   25.57
  -6   4   6  404.51   25.22
  -6  -4   6  410.51   22.63
   6  -4  -6  460.29   57.59
   6   4   6  387.35   18.60
   6   4   6  379.61   17.73
   6   4   6  414.32   22.39
  -6  -4   6  383.41   24.44
   6  -4  -6  393.36   56.08
  -6  -4   6  374.94   61.49
  -8   4   6  166.39   18.08
   8  -4   6  161.04   10.32
   8   4  -6  171.22   51.53
  -8  -4   6  180.03   18.11
   8   4   6  158.35   20.92
   8  -4  -6  150.26   52.39
   8  -4  -6  146.07   44.67
   8   4   6  150.65   10.68
  -8  -4   6  114.99   47.59
 -10   4   6  129.78   20.16
  10  -4   6   92.23   10.35
  10  -4   6   82.95   23.87
  10   4  -6   30.77   55.30
  10  -4   6   36.31   17.25
  10   4   6   76.03   25.93
  10  -4  -6  144.53   63.51
 -10  -4   6   93.48   62.82
 -10  -4   6   80.05   14.90
  10   4   6   69.21   27.21
  10  -4  -6  122.85   60.99
  -1  -5  -6   78.36   18.48
  -1  -5  -6   96.76   16.03
   1  -5   6   63.25   14.99
   1   5  -6   83.56    8.72
   1  -5   6   82.38    7.34
  -1   5   6   94.26    7.70
   1   5  -6  107.99   21.64
  -1   5   6   86.91    9.43
   1  -5  -6  211.81   33.71
  -1   5  -6   70.06    7.10
  -1  -5   6   87.58    8.69
  -1  -5   6   92.62   21.78
   1   5   6   84.54    6.44
  -1   5  -6  107.14   16.47
   1  -5  -6   96.46   20.90
   3   5  -6  109.53   27.04
  -3   5   6   57.54    7.98
  -3  -5  -6   68.17   13.09
  -3   5   6   54.99    8.87
   3   5  -6   72.27   10.97
   3  -5   6   55.60    4.84
  -3  -5   6   52.58    8.56
  -3  -5   6   52.03   21.37
   3  -5  -6   24.48   16.41
   3   5   6   44.01    4.55
   3  -5  -6   71.00   25.25
   3  -5  -6   68.49    8.03
   3   5   6   58.18   12.28
   5   5  -6   20.93    7.33
   5   5  -6    8.65   22.89
  -5   5   6   20.68    6.67
  -5   5   6   13.49    6.88
  -5  -5  -6   25.89   11.48
   5  -5  -6   32.40   27.42
   5  -5  -6   17.99   21.26
  -5  -5   6   21.37    6.19
  -5  -5   6   30.83    8.61
   5   5   6   23.36    4.59
   5   5   6   14.80    8.51
   5  -5  -6   19.91    6.39
  -5  -5   6    8.78   21.59
   7   5  -6   36.20   34.85
  -7  -5  -6   19.69   16.62
   7  -5   6   43.92    5.51
  -7   5   6   36.52    9.46
   7  -5  -6   43.56    9.04
  -7  -5   6    4.15   32.43
   7   5   6   39.65   13.70
   7  -5  -6   51.01   37.43
  -7  -5   6   46.06   10.69
   7  -5  -6   59.58   32.71
   7   5   6   51.69    7.14
   9   5  -6    2.49   49.48
   9  -5   6   -3.65   13.66
   9  -5   6    3.14    4.35
  -9   5   6    4.28    7.80
   9  -5   6    5.86   12.15
   9  -5  -6   10.62   39.20
   9  -5  -6  -21.92   45.34
   9   5   6    9.91    4.73
   9   5   6   -1.74   19.77
  -9  -5   6    6.55    8.39
  -9  -5   6   26.48   50.94
   0   6   6  563.50   27.17
   0   6   6  570.00   24.01
   0  -6  -6  525.66   43.77
   0  -6  -6  573.28   37.97
   0  -6   6  581.82   25.69
   0   6  -6  526.77   25.46
   0  -6   6  542.80   40.40
   0   6  -6  658.70   40.74
   2  -6   6  908.39   35.43
  -2   6   6  961.75   40.93
  -2   6   6  907.01   37.30
   2   6  -6  817.69   57.61
   2  -6   6  896.25   45.02
   2   6  -6  923.08   39.79
  -2  -6  -6  931.77   49.06
  -2   6  -6  906.01   35.61
  -2  -6   6  904.28   39.34
   2   6   6  894.60   34.59
   2  -6  -6  992.42   66.03
  -2  -6   6  872.36   62.47
   2  -6  -6  908.90   36.17
  -2   6  -6  922.03   43.40
   2   6   6  924.08   49.68
   4   6  -6  566.70   30.34
  -4  -6  -6  597.01   36.31
  -4   6   6  603.63   31.10
   4   6  -6  741.19   60.62
  -4   6   6  603.48   28.31
   4   6   6  597.24   34.83
  -4  -6   6  603.25   27.77
   4  -6  -6  661.94   60.67
   4   6   6  604.83   24.22
   4  -6  -6  525.54   50.18
  -4  -6   6  759.98   61.79
  -4  -6   6  587.31   30.35
   4  -6  -6  623.37   27.78
  -6  -6  -6  260.05   28.18
   6  -6   6  268.23   12.75
   6   6  -6  331.25   54.99
  -6   6   6  295.29   21.22
  -6  -6   6  263.94   17.82
   6  -6  -6  321.72   57.11
   6  -6  -6  279.27   48.17
   6   6   6  265.27   24.13
   6   6   6  298.27   15.16
   6  -6  -6  319.80   18.86
  -6  -6   6  273.90   20.41
  -6  -6   6  294.09   55.42
   6   6   6  294.12   16.28
  -8  -6  -6  158.26   30.61
   8  -6   6  159.52   10.71
  -8   6   6  199.30   19.30
   8   6  -6  249.35   58.01
   8   6   6  163.79   12.11
   8  -6  -6  173.73   15.99
   8   6   6   98.87   22.46
   8  -6  -6  200.66   57.94
   8  -6  -6  263.88   52.32
  -8  -6   6  178.20   18.30
  -8  -6   6  122.21   49.27
  10  -6   6  107.65   25.66
  10   6  -6   61.93   62.88
  10  -6   6   73.75    9.79
 -10   6   6   97.01   17.45
  10  -6   6   39.64   19.98
  10   6   6   98.56    9.88
  10  -6  -6   49.37   53.16
 -10  -6   6  125.51   65.58
  10   6   6   13.56   26.60
  10  -6  -6   40.29   58.63
 -10  -6   6  101.65   18.45
  -1   7   6   90.18    7.92
   1   7  -6   62.85   20.26
   1   7  -6   88.94    9.21
  -1   7   6   88.77    9.88
   1  -7   6  102.45   18.63
  -1  -7  -6  103.12   18.10
   1  -7   6   83.95    7.57
   1   7   6   96.59   20.27
  -1  -7   6  103.35   22.59
  -1   7  -6   95.65   17.64
  -1  -7   6   95.76    9.19
   1  -7  -6   84.32   22.14
   1   7   6   80.86    6.90
   1  -7  -6   83.48   19.63
  -1   7  -6   92.36    8.17
   1  -7  -6   93.00    7.14
   3   7  -6  120.10   11.82
  -3   7   6  116.79   12.04
   3   7  -6  152.08   31.06
   3  -7   6  119.25   14.07
  -3  -7  -6  117.14   19.82
  -3   7   6  105.69    9.86
   3  -7   6  119.46    6.99
   3  -7  -6  129.06   31.07
   3  -7  -6   96.37   25.87
   3   7   6  106.57    7.56
  -3  -7   6   66.37   25.94
  -3  -7   6   95.19   10.90
   3  -7  -6  110.54    9.57
  -3   7  -6  132.84   13.62
   3   7   6  114.23   19.21
  -5   7   6   50.96   11.22
  -5  -7  -6   30.77   15.99
   5   7  -6   38.22    9.33
  -5   7   6   53.91    9.38
   5  -7   6   42.38    4.95
   5   7  -6   60.93   28.55
   5   7   6   38.12   13.41
  -5  -7   6   49.87    8.68
   5  -7  -6    6.45   24.20
  -5  -7   6   45.61    9.15
   5  -7  -6   47.78    8.57
  -5  -7   6   35.30   27.52
   5  -7  -6   66.86   27.97
   5   7   6   51.21    7.04
  -7  -7  -6   32.20   20.82
  -7   7   6   31.30   10.72
   7   7  -6   34.47   34.96
   7  -7   6   30.37    5.09
  -7  -7   6   41.15   11.41
  -7  -7   6   32.28   35.15
   7  -7  -6   23.76   28.73
   7   7   6   25.16    6.71
   7  -7  -6   30.39    8.43
   7   7   6   14.66   15.33
   7  -7  -6   31.11   36.30
   9  -7   6   48.51   17.85
  -9   7   6   10.85    9.56
   9   7  -6   39.34   49.97
   9  -7   6   11.80    5.43
   9  -7   6    4.85   15.81
  -9  -7  -6   40.16   27.68
  -9  -7   6  -30.75   49.04
   9   7   6  -44.56   21.76
   9   7   6   14.90    6.54
   9  -7  -6    6.05    7.61
   9  -7  -6   28.66   55.79
  -9  -7   6    1.22    7.62
   9  -7  -6   53.62   45.51
   0   8   6  408.85   37.45
   0  -8   6  395.90   35.68
   0  -8  -6  450.66   18.68
   0   8  -6  462.54   35.35
   0   8   6  436.72   20.16
   0  -8   6  440.72   21.32
   0   8  -6  441.71   21.87
   0  -8  -6  517.35   36.61
  -2   8   6  659.75   31.62
   2  -8   6  645.60   39.06
  -2  -8  -6  545.46   40.73
   2   8  -6  652.74   30.78
   2  -8   6  638.88   26.23
  -2   8   6  640.87   28.32
   2   8  -6  660.99   49.36
  -2   8  -6  638.11   26.75
  -2  -8   6  657.78   53.96
   2   8   6  653.42   26.27
  -2   8  -6  627.21   37.10
  -2  -8   6  658.12   30.32
   2  -8  -6  638.70   48.77
   2   8   6  641.30   42.83
   2  -8  -6  600.12   54.27
   2  -8  -6  653.84   27.53
   4   8  -6  522.71   53.83
   4   8  -6  463.41   25.60
   4  -8   6  443.60   18.61
   4  -8   6  456.39   25.88
  -4   8   6  385.42   22.12
  -4  -8  -6  496.97   36.93
  -4   8   6  434.32   25.63
   4   8   6  434.03   19.80
   4  -8  -6  480.85   52.81
   4  -8  -6  387.68   45.00
   4  -8  -6  435.44   22.41
   4   8   6  462.79   33.54
  -4   8  -6  434.68   25.85
  -4  -8   6  474.62   53.64
  -4  -8   6  454.65   25.22
   6   8  -6  290.43   51.97
   6  -8   6  312.45   19.50
  -6   8   6  313.39   22.24
   6  -8   6  256.95   19.51
   6  -8   6  285.85   13.63
  -6  -8  -6  238.05   32.53
  -6  -8   6  278.99   20.74
  -6  -8   6  317.35   56.76
   6   8   6  282.15   16.03
   6  -8  -6  327.50   60.29
   6  -8  -6  294.73   18.82
  -6  -8   6  248.84   18.06
   6  -8  -6  325.09   51.64
   6   8   6  238.48   28.10
   6   8   6  281.34   17.15
  -8  -8  -6  138.71   32.36
   8  -8   6  145.11   20.32
  -8   8   6  149.05   19.70
   8  -8   6  159.96   20.90
   8  -8   6  137.43   10.81
   8   8  -6  275.33   60.21
   8  -8  -6  179.38   16.55
   8  -8  -6  220.39   52.09
   8  -8  -6   87.05   51.77
  -8  -8   6  183.09   55.91
   8   8   6  178.23   13.22
  -8  -8   6  167.24   18.46
   8   8   6  206.03   29.29
  10  -8   6   76.57   10.17
  10  -8   6   45.96   26.61
 -10   8   6   58.49   13.19
  10   8  -6   94.93   64.22
  10  -8   6   78.70   25.29
 -10  -8  -6   28.00   36.83
  10   8   6   23.24   31.13
  10  -8  -6   99.92   55.01
 -10  -8   6   68.14   15.45
  10   8   6  110.67   11.36
  10  -8  -6   57.66   66.50
  10  -8  -6   76.03   13.86
 -10  -8   6   31.67   65.52
  -1   9   6    6.61    4.06
  -1  -9  -6    6.98    2.72
   1  -9   6   12.88   12.28
   1   9  -6    6.51    4.63
   1   9  -6   19.79   16.25
   1  -9   6    6.15    3.78
  -1  -9  -6   23.33   13.19
  -1   9  -6    9.42   12.04
   1   9   6    7.62    3.78
  -1  -9   6    3.34    4.43
   1  -9  -6    9.47    3.98
  -1   9  -6    8.15    4.39
   1   9   6   -4.15   11.77
  -1  -9   6   -2.07   13.20
   3   9  -6  101.45   11.50
  -3   9   6   95.93   12.44
   3   9  -6  148.43   31.41
   3  -9   6  102.55   16.59
  -3  -9  -6  128.54   23.86
   3  -9   6  105.30    7.93
  -3   9   6  112.40   10.37
  -3  -9   6  111.14   29.46
   3   9   6   94.75   20.43
  -3  -9   6  100.51   11.43
   3  -9  -6  120.09   10.34
   3  -9  -6  126.11   34.88
   3   9   6  104.96    8.35
  -3   9  -6  100.33    7.26
  -3   9  -6  116.12   16.99
   3  -9  -6  116.90   27.68
   5  -9   6   23.60   12.19
   5  -9   6   27.52   11.53
   5   9  -6   64.91   29.45
   5   9  -6   43.68   10.59
  -5   9   6   43.75    9.79
  -5   9   6   35.32    8.44
  -5  -9  -6   -5.24   18.29
   5  -9   6   48.21    5.98
   5  -9  -6   13.25   22.42
  -5  -9   6   40.24   29.17
  -5  -9   6   49.36    8.97
   5   9   6   45.40   15.97
  -5  -9   6   41.81    9.90
   5  -9  -6   41.45   29.56
   5   9   6   47.85    7.61
   5  -9  -6   39.58    8.79
   7   9  -6   -0.97   32.65
   7  -9   6   24.32   13.32
  -7  -9  -6   44.37   24.61
   7  -9   6   16.25   14.29
  -7   9   6   55.37   12.32
   7  -9   6   34.27    6.03
   7  -9  -6   28.65   35.94
  -7  -9   6   37.85   10.04
   7  -9  -6   46.33   31.63
   7  -9  -6   29.42    9.20
  -7  -9   6   57.15   39.03
   7   9   6   40.13    8.78
   7   9   6   77.66   21.42
   7   9   6   43.05    8.22
   9   9  -6   -1.15   49.95
  -9  -9  -6   29.27   32.62
  -9   9   6   24.27   11.40
   9  -9   6   12.38   19.46
   9  -9   6   16.93    6.32
   9  -9   6   16.00   22.33
   9   9   6   21.71    7.26
   9   9   6   11.05   27.27
   9  -9  -6   11.38    8.31
   9  -9  -6   57.36   52.53
  -9  -9   6  -30.67   47.21
  -9  -9   6    2.65    8.30
   9  -9  -6   26.57   41.39
   0 -10   6  135.52   25.80
   0 -10   6   99.59    9.32
   0  10  -6   93.34    9.36
   0  10   6   98.70    8.73
   0  10  -6  124.17   23.57
   0  10   6  148.57   29.52
   0 -10  -6   97.03    7.82
   0 -10  -6  113.78   21.60
   2  10  -6  437.72   41.98
  -2  10   6  419.74   24.09
   2 -10   6  381.53   32.52
  -2 -10  -6  373.10   35.34
  -2  10   6  392.07   20.61
   2 -10   6  402.67   18.72
   2  10  -6  421.27   23.09
  -2  10  -6  462.63   33.23
  -2  10  -6  415.36   19.47
   2 -10  -6  409.36   20.45
  -2 -10   6  410.72   22.43
  -2 -10   6  382.42   42.20
   2  10   6  427.91   19.35
   2 -10  -6  393.86   40.12
   2  10   6  429.98   37.42
   4 -10   6  493.15   33.29
   4 -10   6  467.54   21.01
   4  10  -6  471.60   27.19
  -4  10   6  454.96   27.30
   4  10  -6  480.30   50.29
  -4  10   6  465.64   24.46
  -4 -10  -6  512.56   42.77
   4  10   6  505.71   39.50
   4 -10  -6  439.90   47.30
   4 -10  -6  479.72   24.65
   4  10   6  487.48   22.49
  -4  10  -6  493.84   33.14
  -4 -10   6  486.66   26.92
  -4 -10   6  556.46   58.23
   4 -10  -6  551.20   72.49
  -6 -10  -6  245.13   36.43
   6 -10   6  211.77   26.16
   6 -10   6  213.18   12.49
   6  10  -6  184.64   44.24
   6 -10   6  218.65   25.14
   6  10   6  247.38   16.36
  -6 -10   6  218.16   18.89
   6 -10  -6  224.33   45.60
   6  10   6  305.88   33.13
   6 -10  -6  227.51   17.11
  -6 -10   6  172.05   46.31
   6 -10  -6  197.02   50.31
   6  10   6  211.03   14.91
  -8  10   6  195.03   24.36
   8 -10   6  141.01   25.68
   8  10  -6  210.19   56.20
  -8 -10  -6  176.62   38.11
   8 -10   6  146.69   11.40
   8 -10   6  141.73   24.34
   8  10   6  148.65   13.59
  -8 -10   6  165.94   18.52
   8 -10  -6  130.52   46.51
   8 -10  -6   71.80   50.41
   8  10   6   71.50   27.86
   8 -10  -6  164.18   16.31
  -8 -10   6  136.71   53.93
  10  10  -6   86.55   71.64
  10 -10   6   18.12   31.15
  10 -10   6   62.64    9.82
 -10 -10  -6   21.69   40.96
 -10  10   6   54.01   14.98
  10 -10  -6   79.05   67.06
  10 -10  -6   43.91   11.39
  10 -10  -6   84.69   73.94
 -10 -10   6  125.20   68.18
 -10 -10   6   49.00   12.60
  10  10   6   54.47   35.84
   1  11  -6   -3.17   15.77
  -1 -11  -6    2.89    3.12
   1  11  -6   -0.17    4.59
  -1  11   6   -0.08   17.34
  -1 -11  -6    2.89   13.28
  -1  11   6   -0.12    3.67
   1 -11   6   16.38   13.48
   1 -11   6    2.01    3.53
   1  11   6   -0.93    3.47
   1 -11  -6    6.39    4.21
  -1  11  -6    1.10    3.69
   1  11   6  -10.55   14.28
  -1  11  -6   -2.17   12.52
  -1 -11   6    2.06    4.39
  -1 -11   6  -22.72   15.65
  -3 -11  -6   68.58   21.49
   3 -11   6   65.76    7.75
   3 -11   6   66.95   17.39
  -3  11   6   62.25    9.08
  -3  11   6   41.75    8.36
   3  11  -6   70.05   10.35
   3  11  -6   41.60   23.73
   3 -11  -6   51.55   21.08
  -3  11  -6   37.81   14.79
  -3 -11   6   39.01   23.20
  -3  11  -6   61.73    6.45
   3 -11  -6   93.11   31.84
  -3 -11   6   73.79   11.17
   3  11   6   49.20    7.47
   3  11   6   66.04   20.88
   3 -11  -6   61.78    9.28
  -5 -11  -6   33.86   21.11
   5 -11   6   37.85    6.32
   5  11  -6   49.62   11.85
   5 -11   6   34.50   15.90
  -5  11   6   18.31    8.69
   5  11  -6   12.91   28.90
  -5  11   6   31.47    9.60
   5 -11  -6   36.34    8.25
  -5  11  -6    4.18   13.69
  -5 -11   6   45.55   10.35
  -5 -11   6   38.79   28.04
   5 -11  -6   50.80   34.54
   5  11   6   47.90    8.37
   5  11   6   32.07   17.77
   5 -11  -6  103.36   34.34
   7  11  -6   -6.21   37.32
  -7 -11  -6   23.76   26.08
  -7  11   6   17.77   10.27
   7 -11   6   26.12   17.54
   7 -11   6   29.55    6.45
   7 -11   6    4.81   19.04
  -7 -11   6   21.27    9.75
   7  11   6   16.86    7.10
   7  11   6   32.91   21.75
   7  11   6   33.86    8.51
   7 -11  -6   -9.95   29.29
   7 -11  -6   27.12    9.13
  -7 -11   6  -19.12   36.03
   7 -11  -6    8.02   44.73
   9  11  -6 -112.49   50.47
   9 -11   6  -26.65   22.50
  -9 -11  -6  -12.40   35.39
   9 -11   6    7.90    5.69
   9 -11   6   13.46   27.48
  -9  11   6   13.58    9.94
  -9 -11   6   18.93   10.01
   9  11   6   29.96   30.61
  -9 -11   6   28.89   57.32
   9 -11  -6  -52.47   51.84
   9  11   6   25.68    7.99
   9 -11  -6  111.57   50.67
   9 -11  -6   11.39    8.75
   0  12  -6  140.15   26.97
   0 -12  -6  158.74   10.83
   0  12  -6  165.18   12.43
   0 -12  -6  137.51   27.09
   0  12   6  144.40   11.15
   0 -12   6  150.43   11.81
   0  12   6  179.18   32.77
   0 -12   6  144.97   28.17
   2 -12   6  420.79   37.40
   2 -12   6  459.13   20.92
  -2 -12  -6  477.07   43.29
   2  12  -6  394.55   23.57
  -2  12   6  421.29   48.76
  -2 -12  -6  460.83   18.28
  -2  12   6  433.96   22.11
   2  12  -6  357.52   43.94
   2 -12  -6  392.20   21.30
   2  12   6  409.40   41.24
  -2 -12   6  441.92   23.45
  -2  12  -6  424.15   20.53
  -2 -12   6  420.50   46.03
  -2  12  -6  469.34   36.65
   2  12   6  416.05   20.72
   2 -12  -6  360.78   39.43
   4 -12   6  283.05   15.72
  -4 -12  -6  294.47   41.20
   4  12  -6  312.15   48.16
   4 -12   6  288.73   31.36
  -4  12   6  297.41   21.48
   4  12  -6  311.33   21.52
  -4  12   6  302.24   18.71
   4 -12  -6  277.07   43.65
   4  12   6  274.16   34.23
   4 -12  -6  258.36   50.91
  -4  12  -6  291.40   31.03
   4 -12  -6  307.31   18.97
  -4 -12   6  310.99   52.50
   4  12   6  312.14   17.59
  -4 -12   6  277.86   20.23
   6 -12   6  125.99   23.37
   6  12  -6  173.81   44.69
  -6 -12  -6  136.92   33.41
  -6  12   6  180.94   18.23
   6 -12   6  163.67   11.41
   6 -12   6  101.84   24.57
   6  12   6  149.99   29.17
   6 -12  -6  159.42   15.44
  -6 -12   6  170.18   17.43
  -6 -12   6  159.70   47.82
   6  12   6  169.64   14.78
   6  12   6  169.77   14.01
   6 -12  -6  160.25   47.71
   6 -12  -6  133.81   38.69
   8 -12   6   66.25   23.99
  -8  12   6   86.89   14.39
  -8 -12  -6   26.17   37.21
   8 -12   6  101.74   29.32
   8  12  -6  152.55   52.73
   8 -12   6  104.13   10.59
  -8 -12   6   86.38   15.03
   8  12   6   69.07   30.51
   8 -12  -6   92.41   14.23
   8 -12  -6  104.48   46.88
   8  12   6  135.71   13.81
   8 -12  -6   40.23   54.64
  -8 -12   6   61.47   54.53
   1 -13   6   39.41    7.36
   1  13  -6   11.71   19.10
  -1 -13  -6   23.27    5.59
   1 -13   6   35.10    6.61
   1  13  -6   28.30    8.12
   1 -13   6   40.61   19.78
  -1  13   6   29.23    6.68
  -1  13   6   22.01   20.09
  -1 -13  -6   13.90   17.94
  -1 -13   6   14.41   18.85
   1 -13  -6   29.03    6.80
  -1  13  -6   24.80   17.17
   1  13   6   -2.64   19.00
  -1  13  -6   14.17    5.39
   1 -13  -6    6.17   13.96
   1  13   6   24.63    6.33
  -1 -13   6   30.94    7.28
   3  13  -6   60.23   10.36
  -3  13   6   73.55   13.68
   3 -13   6   89.37    9.67
   3  13  -6   76.20   25.91
  -3 -13  -6   64.76    5.62
  -3 -13  -6   37.43   22.65
  -3  13   6   72.30   10.11
   3 -13   6   74.71   20.44
  -3  13  -6   74.87    7.59
   3  13   6   71.95   22.93
  -3 -13   6   56.74   26.78
   3  13   6   93.78   10.65
   3 -13  -6   69.22   23.81
   3 -13  -6   85.85   11.23
  -3  13  -6   53.29   18.64
  -3 -13   6   74.53   11.77
  -5 -13  -6   33.03   25.83
   5  13  -6    9.26   12.47
   5 -13   6    3.49    4.63
  -5  13   6    6.23    6.96
   5  13  -6    4.25   27.96
   5 -13   6   -0.75   16.60
   5  13   6   14.98    7.05
   5  13   6   15.29   19.47
   5 -13  -6  -27.38   30.27
   5 -13  -6   25.49    8.02
   5 -13  -6   54.78   29.20
  -5  13  -6   25.08   17.31
  -5 -13   6   48.78   33.31
  -5 -13   6   12.17    7.67
   7 -13   6   23.15    6.51
   7 -13   6   33.69   20.51
   7  13  -6   41.48   39.68
  -7 -13  -6    8.91   29.78
  -7  13   6   21.30    9.49
   7 -13   6   21.42   23.82
  -7 -13   6   35.28   10.68
  -7 -13   6    2.80   40.05
   7  13   6   16.03    7.89
   7 -13  -6  -40.11   45.68
   7  13   6   34.30    9.52
   7 -13  -6   30.62   35.29
   7  13   6   34.47   25.28
   7 -13  -6   32.85    9.78
   9 -13   6    5.26    6.19
   9 -13   6   -5.15   34.17
   9  13  -6   71.19   66.12
  -9 -13  -6   13.22   41.57
   9 -13   6   15.01   28.26
  -9  13   6   -5.76    7.87
   9  13   6    7.90    6.42
   9 -13  -6    3.83    8.08
   9 -13  -6    5.78   44.92
   9 -13  -6   25.15   64.75
  -9 -13   6    0.89    8.15
   9  13   6    6.46   35.83
  -9 -13   6   -1.73   55.75
   0 -14   6  241.75   15.39
   0  14  -6  280.18   38.71
   0  14  -6  210.01   15.56
   0 -14   6  222.66   15.40
   0 -14  -6  231.82   14.46
   0 -14   6  185.54   33.92
   0  14   6  220.79   14.83
   0  14   6  306.55   44.80
   2 -14   6  198.18   32.46
  -2 -14  -6  215.09   37.54
  -2  14   6  270.76   17.21
  -2  14   6  291.50   51.40
   2 -14   6  264.08   16.02
  -2 -14  -6  271.66   14.22
   2  14  -6  240.18   41.36
   2  14  -6  270.24   19.14
  -2 -14   6  344.14   50.56
   2 -14  -6  215.50   35.43
   2  14   6  260.28   39.02
  -2 -14   6  284.02   18.61
  -2  14  -6  280.56   16.00
   2 -14  -6  230.61   16.59
   2  14   6  274.89   16.46
  -2  14  -6  279.69   31.05
   4  14  -6  242.21   46.61
  -4  14   6  193.14   17.96
  -4 -14  -6  180.11   37.86
   4 -14   6  205.21   31.43
  -4  14   6  202.79   15.41
   4  14  -6  210.37   18.42
   4 -14   6  186.53   13.29
   4 -14  -6  258.63   56.14
  -4  14  -6  208.09   11.21
   4 -14  -6  187.71   38.21
   4  14   6  210.94   34.61
   4  14   6  213.20   15.26
  -4 -14   6  211.25   17.73
  -4 -14   6  140.98   40.31
   4 -14  -6  190.08   15.83
  -4  14  -6  172.79   28.61
   6 -14   6   98.49   26.58
  -6  14   6   83.03   14.24
   6 -14   6  115.64   10.77
   6  14  -6  132.04   42.76
  -6 -14  -6  107.91   35.01
   6  14   6   96.06   30.00
   6 -14  -6   78.17   45.60
   6 -14  -6  102.72   14.13
   6  14   6  125.61   13.70
  -6 -14   6   95.56   14.74
   6 -14  -6  122.34   38.24
   6  14   6  132.96   15.05
  -6 -14   6   60.49   37.99
   8 -14   6   57.90    9.22
   8 -14   6   44.99   27.50
  -8  14   6   59.84   13.98
  -8 -14  -6   18.71   37.90
   8  14  -6  161.78   59.63
   8 -14   6   68.86   33.86
   8 -14  -6   83.67   47.37
   8  14   6   58.30   32.27
   8  14   6   68.91   11.46
   8 -14  -6   46.34   11.52
  -8 -14   6   57.28   13.11
   8 -14  -6   58.68   55.58
  -8 -14   6   82.56   51.61
   1  15  -6   59.10   10.89
  -1 -15  -6   39.45   23.50
   1  15  -6   54.70   24.79
   1 -15   6   53.39   25.53
  -1  15   6   23.50   25.40
   1 -15   6   64.79    9.59
  -1  15   6   64.03    9.91
  -1 -15  -6   57.84    8.31
  -1 -15   6   22.09   24.29
  -1  15  -6   34.69   21.15
   1 -15  -6   26.40   19.43
   1 -15  -6   64.51    9.68
  -1 -15   6   57.10    9.91
  -1 -15   6   41.30    8.60
   1  15   6   61.07    9.53
  -1  15  -6   65.56    9.53
   1  15   6   61.60   26.94
  -3  15   6   53.99   28.66
  -3 -15  -6   41.15   26.12
   3  15  -6   43.97   27.92
  -3 -15  -6   56.78    7.01
   3  15  -6   75.53   12.89
   3 -15   6   59.68    8.98
  -3  15   6   67.59   10.39
   3  15   6   63.76    9.80
  -3  15  -6   15.88   18.03
  -3  15  -6   68.56    8.76
  -3 -15   6   54.91   10.72
  -3 -15   6   55.23   29.36
   3  15   6   23.69   22.50
   3 -15  -6   71.58   27.16
   3 -15  -6   65.60   10.75
   5 -15   6   41.32   22.95
   5  15  -6   -6.11   32.65
  -5 -15  -6    2.90   28.56
  -5  15   6   12.42    8.71
   5 -15   6   23.78    6.76
  -5 -15   6   22.58    8.82
   5 -15  -6   27.63   41.61
  -5  15  -6    4.73   21.24
   5  15   6   36.13   23.61
   5  15   6   15.78    7.92
   5 -15  -6   17.63    8.22
  -5 -15   6    8.96   32.77
   5 -15  -6   32.41   29.55
   7 -15   6   16.34    6.82
   7  15  -6  -24.36   42.97
  -7  15   6    7.68    8.72
   7 -15   6   31.85   29.85
   7 -15   6    4.51   23.60
  -7 -15  -6  -17.52   36.42
  -7 -15   6   35.20   46.16
   7  15   6   22.12   28.49
   7  15   6    5.73    6.85
  -7 -15   6   20.42    9.99
   7 -15  -6  -38.01   32.81
   7 -15  -6   82.18   54.63
   7 -15  -6    3.19    7.56
   7  15   6   12.56    8.38
  -9 -15  -6   22.80   46.56
  -9  15   6    5.22    9.34
   9 -15   6   11.57    6.95
   9  15  -6    4.06   63.51
   9 -15   6   59.99   41.72
   9 -15  -6  -34.76   78.18
  -9 -15   6   13.04   10.14
   9 -15  -6   49.83   50.45
   9 -15  -6   10.99    9.91
  -9 -15   6   11.78   10.36
   9  15   6  -43.85   37.64
   0 -16   6   58.06   25.94
   0  16   6  124.42   12.49
   0 -16  -6  149.71   12.48
   0  16  -6  141.90   13.35
   0 -16   6  154.35   13.49
   0  16  -6  169.07   32.94
   0  16   6  165.99   39.97
   0 -16  -6   99.52   30.51
  -2 -16  -6  246.93   14.75
  -2  16   6  250.82   47.02
   2  16  -6  210.22   18.36
  -2 -16  -6  283.09   44.43
   2 -16   6  253.76   16.53
   2  16  -6  257.88   43.67
  -2  16   6  257.36   17.13
  -2 -16   6  240.27   18.45
  -2  16  -6  253.60   15.95
   2 -16  -6  229.13   17.12
   2  16   6  232.30   41.43
  -2 -16   6  253.24   18.16
   2  16   6  251.78   16.86
  -2  16  -6  189.36   32.26
   2 -16  -6  185.81   35.17
  -2 -16   6  260.37   47.32
   4  16  -6  146.81   41.83
  -4 -16  -6  136.40    9.27
  -4  16   6  140.32   19.80
   4 -16   6  150.77   12.53
  -4 -16  -6  116.91   37.19
   4  16   6  140.24   33.64
   4 -16  -6  144.95   14.66
  -4 -16   6  140.88   15.88
   4  16   6  146.65   13.89
  -4  16  -6  143.30   10.21
   4 -16  -6  126.91   33.56
  -4 -16   6   57.21   33.75
  -4  16  -6  127.96   28.93
  -4 -16   6  155.86   17.76
   6 -16   6  111.51   11.30
  -6 -16  -6   73.36   38.52
   6  16  -6  -11.88   43.10
   6 -16   6   48.35   27.48
  -6  16   6   84.65   16.41
   6 -16  -6   53.21   11.74
  -6  16  -6  111.91   31.29
   6  16   6   51.74   28.89
  -6 -16   6   38.32   49.24
   6 -16  -6   56.24   50.75
  -6 -16   6   82.44   14.64
   6  16   6  111.41   14.22
  -6 -16   6  117.01   16.78
   6 -16  -6   49.85   37.43
   8 -16   6   46.34    9.23
   8  16  -6   42.32   55.99
  -8  16   6   74.78   15.44
  -8 -16  -6    4.85   45.29
   8 -16   6   45.98   32.92
   8 -16   6   63.47   39.18
   8 -16  -6  -30.39   65.64
  -8 -16   6   44.64   64.80
   8 -16  -6   52.02   45.50
   8  16   6   66.05   36.23
  -8 -16   6   41.51   12.59
   8 -16  -6   34.13   11.24
  -8 -16   6   38.45   13.19
  -1  17   6   41.51    8.98
   1  17  -6  114.85   30.57
   1 -17   6   15.55    7.40
   1  17  -6   39.32    9.94
  -1  17   6  -57.23   25.25
  -1 -17  -6   41.57    8.26
   1 -17   6   75.78   29.57
   1 -17  -6   43.89    8.85
   1 -17  -6   -7.09   20.15
  -1 -17   6   37.23   26.19
   1  17   6   32.43   24.47
   1  17   6   40.59    8.91
  -1  17  -6   27.37   21.07
  -1  17  -6   36.91    8.48
  -1 -17   6   21.89    8.54
   3 -17   6   34.32    8.06
  -3 -17  -6    4.88   28.14
   3  17  -6   46.08   10.73
  -3  17   6  -15.82   35.45
  -3 -17  -6   32.06    6.85
   3  17  -6   77.88   32.13
   3 -17  -6   31.10    8.85
  -3 -17   6   34.45   10.08
   3 -17  -6    6.55   25.08
  -3 -17   6   21.13   31.35
   3  17   6   18.52    7.97
  -3 -17   6   25.91    9.21
   3  17   6   -7.43   23.74
  -3  17  -6   30.64    7.10
  -3  17  -6   27.53   20.13
  -5  17   6   28.19   10.92
   5 -17   6   12.50    6.77
  -5 -17  -6   31.20   34.65
   5 -17   6   21.34   24.45
   5  17  -6   61.33   39.86
  -5 -17  -6   11.15    3.90
   5 -17  -6   12.73   28.90
   5 -17  -6   17.84    8.66
   5  17   6   17.92    7.89
  -5 -17   6   15.74    8.74
   5  17   6  -54.62   22.78
  -5  17  -6    5.87   24.49
  -5 -17   6   -3.42   38.40
   5 -17  -6   24.20   43.00
  -5 -17   6   26.06   10.47
   7  17  -6   12.84   47.67
   7 -17   6   40.52   32.53
  -7 -17  -6  -70.36   37.99
   7 -17   6   22.69    7.66
   7 -17   6   21.76   37.41
  -7  17   6    8.33    9.82
   7  17   6   39.49   35.38
   7 -17  -6   11.25    9.24
  -7 -17   6   56.43   55.11
   7 -17  -6  -58.34   58.59
  -7 -17   6   12.37    9.61
   7 -17  -6   35.01   40.41
  -7 -17   6   19.31   10.39
   0  18   6  160.65   39.96
   0 -18   6  178.39   15.24
   0  18  -6  180.57   38.45
   0  18  -6  150.06   15.03
   0 -18   6  135.16   33.07
   0 -18  -6  155.27   37.13
   0  18   6  159.44   14.14
   0 -18  -6  154.76   14.21
  -2  18   6  175.01   44.49
   2  18  -6  160.54   16.18
  -2 -18  -6   48.32   51.59
   2 -18   6  127.27   14.16
  -2 -18  -6  126.12   11.91
   2  18  -6   71.50   29.27
   2  18   6  122.40   14.72
  -2 -18   6   87.34   35.13
   2 -18  -6  130.13   14.81
   2  18   6   70.36   31.28
  -2 -18   6  119.31   15.19
  -2  18  -6   98.45   28.66
  -2  18  -6  132.59   12.59
  -2 -18   6  141.53   14.38
   4  18  -6  106.66   39.94
  -4  18   6  -12.54   36.74
  -4 -18  -6   90.90    9.51
  -4  18   6  105.17   17.96
   4 -18   6   89.04   11.43
  -4 -18  -6   24.54   33.49
   4  18   6  137.45   35.88
  -4 -18   6   97.87   14.94
   4 -18  -6   49.96   30.59
  -4 -18   6   46.24   38.63
   4 -18  -6   76.88   12.86
  -4  18  -6   90.64   30.44
   4  18   6  126.94   15.07
  -4  18  -6   85.17    9.44
  -4 -18   6  104.30   15.89
  -6  18   6   45.45   11.07
   6 -18   6   72.37   10.81
  -6 -18  -6  -58.69   38.00
   6 -18   6   60.44   33.21
   6  18  -6   35.29   46.92
  -6 -18   6   79.20   14.94
   6 -18  -6   63.76   39.29
  -6 -18   6   78.69   13.95
   6  18   6   70.56   34.72
   6 -18  -6   75.43   14.13
  -6 -18   6   63.30   59.06
  -6  18  -6   13.48   31.29
   6 -18  -6  144.72   60.13
   8 -18   6   24.72    8.78
   8  18  -6   11.65   68.69
  -8 -18  -6   32.82   51.99
  -8  18   6   30.25   12.78
   8 -18   6  -16.38   45.15
   8 -18  -6  -11.28   45.47
   8 -18  -6   39.61   12.15
   8 -18  -6   -6.98   75.40
   8  18   6   36.42   43.04
  -8 -18   6   28.11   12.95
  -8 -18   6   31.51   13.23
   1 -19   6   15.41    7.70
   1  19  -6  -15.94   25.40
   1  19  -6    6.59    7.27
  -1 -19  -6    6.90    6.50
  -1 -19  -6   11.67   28.28
  -1  19   6    6.63   31.34
   1  19   6   -3.43   25.57
  -1 -19   6    4.01    7.10
  -1  19  -6   12.90    7.15
   1 -19  -6    6.06    7.03
  -1  19  -6   16.81   23.94
   1 -19  -6  -10.95   23.56
  -3 -19  -6   15.90    6.47
   3  19  -6   10.45   32.82
  -3  19   6   34.97   37.66
   3 -19   6   12.81    7.80
   3 -19   6    8.56   33.12
  -3 -19  -6  -13.85   30.13
  -3 -19   6   18.28    9.11
   3 -19  -6   14.32   27.47
  -3  19  -6   13.14    6.50
   3  19   6   31.56   30.47
  -3  19  -6   27.22   25.07
  -3 -19   6    6.64   37.27
  -3 -19   6    7.08    7.11
   3 -19  -6   10.50    8.13
   5 -19   6    2.47    6.68
   5  19  -6  -31.16   44.37
  -5 -19  -6   29.84   39.70
  -5  19   6    4.09    8.49
   5 -19   6   50.61   30.62
  -5 -19  -6   13.46    5.21
  -5 -19   6   11.83    8.21
   5  19   6  -33.35   27.89
   5 -19  -6    1.16   35.36
  -5 -19   6   19.52   10.39
   5 -19  -6    7.94    8.35
  -5  19  -6   -7.11   27.86
  -7  19   6   12.89   11.87
  -7 -19  -6  -19.38   49.75
   7 -19   6    8.18    7.18
   7  19  -6  -74.83   49.75
   7 -19  -6   11.65    9.89
   7 -19  -6  131.41   75.08
  -7 -19   6   37.47   12.84
  -7 -19   6   15.25   11.16
   7 -19  -6    4.67   40.91
   7  19   6    7.33   38.08
   0  20   6   65.83   37.56
   0  20  -6   55.59   10.92
   0 -20   6   47.90   10.92
   0  20  -6   -5.53   24.59
   0 -20  -6   57.07   31.73
   0 -20  -6   44.69   10.24
   2 -20   6   61.78   11.03
  -2 -20  -6   50.47    9.54
  -2 -20  -6   12.00   36.97
   2  20  -6   50.19   33.12
   2 -20   6   38.90   31.20
  -2  20   6   59.33   38.98
  -2  20  -6   85.13   11.93
   2  20   6   99.54   36.82
   2 -20  -6   31.79   30.16
   2 -20  -6   70.38   11.94
  -2 -20   6   62.82   11.77
  -2  20  -6   23.81   26.29
  -4  20   6   58.68   45.87
   4 -20   6   16.82   29.25
  -4 -20  -6   43.02    8.13
  -4 -20  -6   30.61   40.06
   4  20  -6   60.95   42.96
   4 -20   6   36.68    9.10
  -4  20  -6    7.64   29.18
  -4  20  -6   62.81    9.10
   4 -20  -6   84.71   35.01
  -4 -20   6   46.41   12.50
   4 -20  -6   34.78   10.55
   4  20   6   66.39   33.74
   6 -20   6   43.40    9.33
   6 -20   6  -24.74   33.31
  -6 -20  -6    8.37   47.35
   6  20  -6   78.47   57.68
  -6  20   6   45.01   12.39
   6  20   6   79.08   39.23
  -6 -20   6  -26.17   65.03
  -6 -20   6   41.09   12.95
   6 -20  -6   90.72   74.48
  -6  20  -6   43.36   40.45
   6 -20  -6   84.15   45.23
   6 -20  -6   17.96   10.81
  -6 -20   6   55.42   14.15
   1  21  -6    9.94   30.82
   1 -21   6    3.45    7.74
  -1  21   6   -3.42   32.65
   1 -21   6   19.39   32.76
  -1 -21  -6   18.20   29.06
   1  21  -6   19.27    9.04
  -1 -21  -6   12.76    7.63
   1  21   6   22.86   33.23
   1 -21  -6   -4.61   30.00
  -1 -21   6   24.78    9.78
   1 -21  -6    9.12    8.01
  -1 -21   6   23.40   33.72
  -1  21  -6   -8.06   25.85
  -1  21  -6   10.46    7.95
   3 -21   6    2.45    7.18
   3 -21   6  -67.02   33.10
   3  21  -6   10.58   37.13
  -3  21   6   31.47   49.77
  -3 -21  -6    5.51    6.60
  -3  21  -6    9.08    6.61
  -3  21  -6  -14.71   27.72
   3 -21  -6    1.15    7.51
  -3 -21   6    4.94    8.63
   3  21   6   -1.58   27.53
   3 -21  -6    3.60   31.27
  -3 -21   6  -20.28   47.98
   5  21  -6    4.24   44.13
  -5 -21  -6   11.92    6.30
   5 -21   6   60.39   38.86
  -5  21   6    6.43    8.44
  -5 -21  -6   66.73   46.12
   5 -21   6    6.31    7.83
  -5  21  -6   10.79   35.55
   5  21   6    2.60   34.74
  -5 -21   6   16.35   48.49
   5 -21  -6   21.84   10.78
  -5 -21   6   16.16   10.06
   5 -21  -6   37.60   41.50
   7 -21   6    3.72    6.89
   7 -21  -6   12.63   10.54
   0 -22  -6   38.96   10.16
   0 -22  -6   -4.39   31.12
   0 -22   6   52.38   11.56
   0  22   6   34.58   38.31
   0  22  -6   38.23   34.42
   0 -22   6   14.05   33.98
   0  22  -6   63.73   11.80
   2  22  -6   30.34   35.91
  -2 -22  -6   29.83    9.44
   2 -22   6   20.94    8.86
  -2  22   6   13.97   43.41
  -2 -22  -6   35.84   37.72
   2 -22   6   19.49   34.28
   2 -22  -6  -18.09   37.95
  -2  22  -6   19.21   31.31
  -2 -22   6   28.38   11.07
  -2 -22   6   33.72   46.11
   2 -22  -6   23.41    9.93
  -2  22  -6   18.64    8.68
   2  22   6   25.47   35.93
  -4  22   6    2.90   49.08
  -4 -22  -6   37.41   42.22
  -4 -22  -6   30.99    8.19
   4 -22   6   25.24    9.34
   4  22  -6   66.85   51.07
   4 -22   6  -41.03   33.57
  -4 -22   6   12.85   50.62
  -4  22  -6   69.87   39.71
   4 -22  -6   22.84   39.37
   4  22   6   23.08   38.54
  -4  22  -6   43.64    8.03
   4 -22  -6   24.95   10.68
  -4 -22   6   21.45   11.22
   6 -22   6   17.71    8.45
  -6 -22  -6  -87.22   51.72
   6  22  -6   51.63   65.95
  -6  22   6   34.57   13.97
  -6 -22   6  -24.64   60.78
  -6 -22   6   51.11   14.39
   6  22   6  -26.72   40.76
   6 -22  -6   28.04   10.71
   6 -22  -6   -5.04   47.97
   6 -22  -6   98.88   73.78
  -1  23   6   45.90   48.21
  -1 -23  -6   13.88    8.21
   1 -23   6   -0.98    8.10
   1 -23   6   -1.91   36.02
  -1 -23  -6   57.64   42.64
   1  23  -6   30.12   40.58
   1 -23  -6  -14.57   37.92
   1 -23  -6   24.34    9.95
  -1 -23   6   13.70   43.60
  -1 -23   6   13.78    9.94
  -1  23  -6   11.77    8.13
   1  23   6   42.59   39.26
  -1  23  -6   21.75   33.40
  -3 -23  -6   -4.25   43.55
  -3  23   6   58.56   49.55
   3 -23   6   12.79   39.82
   3  23  -6   45.93   42.96
   3 -23   6    2.27    7.57
  -3 -23  -6   15.55    7.82
  -3  23  -6   -7.84   34.45
  -3 -23   6    3.26    9.31
  -3  23  -6   11.96    7.78
  -3 -23   6  -14.85   52.25
   3 -23  -6    3.07    8.75
   3 -23  -6    4.01   37.10
   3  23   6   59.67   43.01
   5  23  -6  -27.84   50.09
  -5 -23  -6    6.05    6.59
  -5 -23  -6   48.25   56.41
   5 -23   6    1.89    7.62
  -5  23   6    2.40    8.23
   5  23   6   43.31   43.89
  -5  23  -6   -0.56    1.65
   5 -23  -6    1.64    9.61
  -5 -23   6   83.38   61.94
  -5 -23   6    2.82    9.99
   5 -23  -6   11.61   43.28
   0  24   6   37.88   52.42
   0 -24   6   34.09   11.53
   0 -24   6    6.55   43.41
   0 -24  -6  -80.90   39.56
   0 -24  -6   29.93    9.87
   0  24  -6    1.54   32.10
   2 -24   6   43.23   10.69
   2  24  -6   47.13   46.88
   2 -24   6   20.56   43.70
  -2 -24  -6    1.69   42.00
  -2  24   6   21.55   55.59
  -2 -24  -6   29.94   10.14
  -2 -24   6   33.10   51.26
  -2 -24   6   43.11   12.61
   2 -24  -6   15.56   39.08
  -2  24  -6   19.24   36.32
   2 -24  -6   49.91   12.77
  -2  24  -6   59.64   11.69
   2  24   6   59.86   47.91
  -4 -24  -6   34.14    8.76
   4 -24   6   37.20   10.70
  -4  24   6  -16.76   58.64
   4  24  -6   23.98   56.78
  -4 -24   6   58.72   57.39
   4 -24  -6    4.83   44.99
   4  24   6  -31.63   42.53
   4 -24  -6   36.78   12.37
  -4 -24   6   25.61   12.59
  -1 -25  -6    7.76    8.39
   1 -25   6   19.88   10.21
  -1  25   6    1.00   58.06
  -1 -25  -6    7.39   42.67
   1 -25   6  -50.19   45.88
   1  25  -6  -39.94   43.29
   1 -25  -6   46.72   48.80
  -1  25  -6   13.79   39.56
  -1 -25   6    3.87    9.59
   1 -25  -6   11.15    9.10
  -1 -25   6    8.23   48.73
   1  25   6  -30.61   48.28
   3  25  -6   23.90   54.34
   3 -25   6    9.39    9.15
  -3 -25  -6    4.89    7.57
  -3 -25  -6 -100.90   49.87
  -3  25   6   -5.79   61.02
   3 -25  -6    3.62    9.29
  -3 -25   6  -35.66   53.83
  -3 -25   6   13.86   10.88
   3 -25  -6   50.37   47.61
  -3  25  -6    6.52    7.04
   3  25   6  -57.99   49.17
   0 -26  -6   23.76   10.55
   0  26   6    5.03   53.96
   0 -26   6   28.19   11.64
   0 -26   6  -55.65   51.41
   0  26  -6    4.78   37.87
   0 -26  -6  140.00   53.65
  -2 -26  -6    7.88    8.61
   2 -26   6   21.26   10.28
  -2 -26  -6  -20.74   49.47
  -2  26   6   44.44   60.79
   2  26  -6   -7.67   49.54
   2 -26  -6   23.72   11.05
   2  26   6  -56.49   48.77
  -2 -26   6    8.91   10.12
  -2 -26   6  -85.74   56.01
   2 -26  -6  -14.58   47.69
  -1 -27  -6    4.00    8.83
   1 -27  -6   -0.67    8.69
   0   0   7    3.24    4.09
   0   0  -7   -0.02   11.48
   0   0  -7   -9.91    9.80
   0   0   7    6.55    3.18
  -2   0   7   73.56   11.49
  -2   0  -7   61.04    9.85
   2   0  -7   64.25   23.14
   2   0  -7   50.03    9.24
  -2   0   7   57.57    7.85
  -2   0  -7   65.31    8.73
   2   0   7   44.96    7.11
   4   0   7   55.49    6.94
   4   0  -7   67.68   11.05
  -4   0   7   65.12    9.64
  -4   0   7   64.28   12.04
   4   0  -7   60.88   28.11
  -4   0   7   66.41   30.55
   6   0  -7  100.77   37.69
  -6   0   7   89.56   13.60
  -6   0   7   55.22   35.18
  -6   0   7  119.38   11.94
  -8   0   7  -20.66   40.50
  -8   0   7    2.51    7.22
   8   0  -7  -57.34   42.02
  10   0  -7  135.91   76.15
   1  -1   7  483.35   23.17
   1   1  -7  465.01   24.03
  -1  -1  -7  449.91   29.55
  -1  -1  -7  470.59   33.01
   1   1  -7  454.67   39.67
  -1   1   7  455.47   21.22
  -1   1   7  490.99   25.07
  -1  -1   7  458.53   21.09
   1  -1  -7  494.60   42.16
  -1   1  -7  489.70   31.87
   1   1   7  510.04   23.76
   1   1   7  463.71   19.59
  -1  -1   7  524.66   25.20
  -1   1  -7  465.50   29.79
   1  -1  -7  495.82   39.58
  -3   1   7  708.43   35.54
   3  -1   7  769.61   30.93
  -3   1   7  749.49   32.40
   3   1  -7  645.00   58.13
   3   1  -7  734.65   35.00
   3   1   7  750.72   31.48
   3  -1  -7  710.01   34.90
  -3  -1   7  791.57   32.69
   3  -1  -7  791.98   62.65
   3   1   7  706.19   26.87
  -3  -1   7  821.82   36.61
  -3  -1   7  724.10   59.99
   5   1  -7  387.53   23.92
   5   1  -7  432.88   60.46
  -5   1   7  365.95   21.24
  -5   1   7  367.09   24.18
   5  -1  -7  408.52   58.59
  -5  -1   7  397.01   60.39
  -5  -1   7  377.15   24.13
   5   1   7  385.47   17.46
   5  -1  -7  367.65   23.24
  -5  -1   7  334.01   20.64
   7   1  -7  544.19   67.94
   7  -1   7  398.89   17.01
  -7  -1   7  454.48   71.13
   7  -1  -7  454.30   76.46
  -7  -1   7  423.02   27.71
   9   1  -7    4.50   56.39
  -9   1   7   99.76   17.02
  -9  -1   7    4.73   60.05
  -9  -1   7  111.94   19.04
   9  -1  -7  131.60   54.21
   0  -2  -7   32.09   12.71
   0   2   7   40.41    5.64
   0  -2   7   36.63    7.35
   0   2   7   27.98    6.45
   0   2  -7   35.56   15.15
   0  -2  -7    3.13   12.96
  -2   2   7   58.78    7.86
  -2   2   7   53.23    9.38
  -2  -2  -7   63.32   11.13
   2   2  -7   73.00   24.52
  -2  -2  -7   51.25   12.30
   2  -2   7   66.87    8.37
   2   2  -7   83.43   11.75
   2   2   7   57.94    4.81
  -2  -2   7  109.79   27.37
  -2  -2   7   76.50   10.60
  -2   2  -7   50.92    7.83
  -2  -2   7   69.72    8.33
   2   2   7   57.82    8.67
   2  -2  -7   21.45   18.26
  -2   2  -7   68.27    9.08
   2  -2  -7   65.20   22.59
   4   2  -7   19.36    6.99
  -4   2   7   17.19    7.89
  -4   2   7   20.99    6.19
   4  -2   7   14.89    3.95
   4   2  -7   22.45   21.17
   4   2   7   18.85    4.98
  -4  -2   7   11.65    6.02
   4  -2  -7   11.23   18.91
  -4  -2   7   -8.94   21.77
   4  -2  -7   22.21   25.62
  -4  -2   7   14.78    5.72
   6   2  -7   46.02   31.62
  -6   2   7   78.99   12.95
  -6   2   7  104.00   12.39
  -6  -2   7  113.96   40.95
   6   2   7   93.20    7.31
   6   2   7   81.61    7.37
   6  -2  -7   67.80   32.28
  -6  -2   7   96.20   15.33
  -6  -2   7  101.44   12.65
   6  -2  -7   51.07   31.22
   6   2   7   66.31    6.09
  -8   2   7   10.36    8.88
   8  -2   7   12.59    3.93
   8   2  -7  -27.92   39.56
  -8  -2   7   16.48    9.83
   8  -2  -7  -33.07   39.62
   8  -2  -7   53.33   37.15
  -8  -2   7    6.11   41.42
  10   2  -7   75.55   62.35
 -10   2   7    4.92    8.11
 -10  -2   7   32.28   63.93
 -10  -2   7    0.56    9.02
  10  -2  -7  -71.67   56.66
  10  -2  -7   -4.16   52.58
   1  -3   7  578.77   26.25
  -1  -3  -7  625.72   35.56
   1   3  -7  563.53   27.54
  -1   3   7  540.10   24.86
   1   3  -7  603.97   45.55
  -1  -3  -7  627.42   40.85
  -1   3   7  581.11   28.81
   1  -3  -7  594.05   47.60
   1   3   7  556.50   23.48
  -1   3  -7  544.30   34.52
   1   3   7  556.55   27.19
  -1  -3   7  567.81   45.67
   1  -3  -7  663.55   45.12
  -1  -3   7  575.50   27.98
   3   3  -7  703.63   57.91
   3   3  -7  725.87   35.30
   3  -3   7  748.61   30.29
  -3  -3  -7  777.21   33.07
  -3  -3  -7  728.45   31.79
  -3   3   7  764.78   32.95
  -3   3   7  765.19   36.54
  -3  -3   7  727.96   32.30
   3  -3  -7  770.65   62.90
  -3  -3   7  743.34   35.64
   3   3   7  735.62   28.00
  -3  -3   7  757.89   61.66
   3   3   7  773.61   32.46
   5   3  -7  257.80   46.60
  -5   3   7  244.39   16.30
  -5   3   7  252.52   19.42
   5   3  -7  228.87   18.05
   5  -3  -7  214.90   47.36
  -5  -3   7  244.32   46.23
  -5  -3   7  216.67   18.05
   5  -3  -7  129.94   35.03
   5   3   7  202.88   10.05
  -5  -3   7  232.80   15.94
  -7   3   7  261.38   22.27
   7  -3   7  264.81   12.21
   7   3  -7  319.82   60.31
   7  -3  -7  279.04   57.72
   7   3   7  272.61   13.81
  -7  -3   7  243.77   55.81
  -7  -3   7  300.59   22.58
   7  -3  -7  331.64   63.48
   9  -3   7   90.78    8.09
  -9   3   7   55.24   13.08
   9   3  -7   78.72   57.27
   9  -3  -7   72.33   46.60
   9  -3  -7   36.84   52.12
  -9  -3   7   67.71   58.15
  -9  -3   7   86.76   15.22
   0   4  -7   44.92   15.87
   0   4   7   50.21    6.44
   0  -4  -7   59.14   19.17
   0  -4   7   64.27    9.23
   0  -4  -7   52.13   14.76
   0  -4   7   38.28   15.98
   0   4  -7   63.74    8.77
   0   4   7   68.45   10.02
  -2   4   7   84.59    8.42
  -2   4   7  104.08   13.77
   2   4  -7   96.92   12.15
  -2  -4  -7   76.08   16.54
   2  -4   7   93.13    7.95
  -2  -4  -7   93.67   15.99
   2   4  -7   79.15   24.97
   2  -4  -7   83.67   21.89
   2  -4  -7   84.90   25.04
  -2   4  -7   92.20   11.93
   2   4   7   84.77    8.95
  -2  -4   7   83.75   11.17
  -2  -4   7   69.22   24.66
   2   4   7   77.17    6.21
   4   4  -7   14.73    5.83
  -4   4   7   13.60    5.63
   4   4  -7   19.55   22.71
  -4   4   7    9.39    6.95
   4  -4  -7   24.71   28.50
  -4  -4   7    5.21    6.22
  -4  -4   7   12.30    5.55
   4   4   7   14.50    3.13
  -4  -4   7   12.51   22.65
   4  -4  -7   11.68   19.60
  -6   4   7   44.14   11.29
  -6   4   7   18.91    7.95
   6   4  -7   59.26   33.95
  -6  -4   7   39.59    8.92
   6  -4  -7   -3.18   33.20
  -6  -4   7   33.28    9.16
  -6  -4   7   18.63   34.38
   6   4   7   53.65    6.33
   6  -4  -7   24.46   28.39
  -8   4   7   -1.61    6.68
   8   4  -7  -10.98   39.18
   8  -4   7   10.71    4.02
   8  -4  -7  -24.36   39.34
   8   4   7    8.79    4.38
  -8  -4   7  -39.94   39.41
   8  -4  -7  -11.78   36.19
  -8  -4   7   13.46    8.31
  10  -4   7    5.67    5.04
 -10   4   7    9.13    9.55
  10   4  -7  -14.33   59.80
  10  -4  -7  -77.40   49.61
  10  -4  -7  -15.91   65.18
 -10  -4   7  -34.61   67.29
 -10  -4   7    6.57    8.34
  -1  -5  -7  633.18   45.23
  -1   5   7  638.19   28.29
   1   5  -7  635.99   30.58
  -1  -5  -7  688.06   40.27
   1  -5   7  663.55   41.77
  -1   5   7  683.44   32.27
   1   5  -7  697.36   49.51
   1  -5   7  643.42   28.82
  -1   5  -7  616.72   28.70
   1  -5  -7  707.91   54.19
  -1  -5   7  725.35   52.01
   1  -5  -7  670.10   47.64
   1   5   7  697.80   31.14
  -1   5  -7  695.15   39.47
   1   5   7  644.65   26.94
  -1  -5   7  662.17   30.84
  -3   5   7  622.47   31.55
  -3  -5  -7  655.08   35.34
   3   5  -7  611.08   54.79
   3   5  -7  614.61   30.72
   3  -5   7  602.05   24.62
  -3  -5  -7  656.22   36.97
  -3   5   7  575.62   27.58
  -3  -5   7  643.26   56.64
  -3  -5   7  537.86   26.67
  -3  -5   7  604.65   30.47
   3  -5  -7  554.94   49.64
   3   5   7  563.93   23.57
   3  -5  -7  658.52   58.54
   5   5  -7  189.54   43.06
  -5   5   7  149.96   13.03
   5   5  -7  133.90   14.62
  -5   5   7  157.68   15.63
   5   5   7  134.02    8.68
  -5  -5   7  121.85   41.17
   5  -5  -7  105.22   34.77
   5  -5  -7  203.10   46.29
  -5  -5   7  158.53   13.28
  -5  -5   7  155.18   15.25
   7  -5   7  218.01   11.03
   7   5  -7  242.72   60.71
  -7   5   7  236.02   21.25
   7  -5  -7  254.89   55.84
  -7  -5   7  244.24   20.69
   7   5   7  230.39   13.88
  -7  -5   7  209.93   56.78
   7  -5  -7  264.88   58.31
   9  -5   7   71.48    8.30
  -9   5   7   72.21   14.66
   9   5  -7  138.68   62.03
   9  -5  -7  -12.90   45.16
   9  -5  -7   86.51   62.48
   9   5   7   73.73    8.12
  -9  -5   7   94.04   16.60
  -9  -5   7   12.81   53.03
   0   6   7   36.99    8.21
   0  -6   7   29.15    6.30
   0   6  -7   44.21    8.22
   0  -6  -7    6.78   15.21
   0   6  -7   33.09   14.85
   0  -6   7   28.04   15.37
   0   6   7   40.01    6.19
   0  -6  -7   29.13   14.26
   2   6  -7  120.26   11.67
  -2  -6  -7   98.13   19.35
  -2  -6  -7  108.07   21.33
   2  -6   7  107.29   16.30
  -2   6   7  100.96    9.56
  -2   6   7  124.65   15.73
   2  -6   7   99.33    8.28
   2   6  -7   89.09   26.95
  -2  -6   7  101.52   12.62
   2   6   7  105.41    7.63
  -2  -6   7  106.95   27.89
   2  -6  -7  127.72   30.46
   2  -6  -7  110.49   26.55
  -2   6  -7  106.96   15.82
  -4   6   7   32.51    7.81
  -4  -6  -7   40.42   13.13
   4   6  -7   24.63    8.42
   4   6  -7   44.41   26.65
  -4   6   7   32.87    9.62
  -4  -6   7   31.41    8.73
   4   6   7   30.93    4.93
  -4  -6   7   13.29   23.02
   4  -6  -7   34.17   23.77
  -4  -6   7   24.38    6.46
   4  -6  -7   20.03   23.42
  -6   6   7   41.07   10.72
   6  -6   7   38.43    4.60
   6   6  -7   39.84   32.46
  -6  -6  -7   50.44   13.41
   6  -6  -7   37.98   38.61
   6  -6  -7   55.93   32.26
   6   6   7   47.41   10.70
  -6  -6   7  -11.64   31.72
  -6  -6   7   46.97   11.27
   6   6   7   52.91    7.19
   8   6  -7    9.61   46.86
  -8   6   7   15.70    9.29
   8  -6   7    6.38    4.00
  -8  -6   7  -33.78   42.10
   8  -6  -7  -52.92   41.74
   8   6   7    5.37   12.12
   8   6   7    7.91    4.87
  -8  -6   7    0.09    6.97
   8  -6  -7  -15.23   36.20
  10  -6   7    7.01    5.33
  10   6  -7   -4.48   72.86
 -10   6   7   14.40   11.39
  10  -6  -7   -5.63   73.66
  10  -6  -7   -3.78   54.88
  10   6   7   20.91   18.50
 -10  -6   7    5.93    9.00
  10   6   7   -8.58   17.73
   1   7  -7  364.07   36.86
  -1   7   7  392.11   22.30
  -1  -7  -7  316.01   30.13
  -1   7   7  362.82   18.57
   1  -7   7  374.04   32.79
  -1  -7  -7  369.32   36.29
   1   7  -7  359.14   20.65
   1  -7   7  395.16   18.95
   1  -7  -7  343.05   34.97
  -1  -7   7  337.76   38.26
   1   7   7  410.09   21.74
  -1  -7   7  348.71   20.14
   1  -7  -7  298.03   43.92
  -1   7  -7  369.00   18.95
   1   7   7  343.00   17.21
  -1   7  -7  380.38   30.63
  -3   7   7  646.34   33.10
  -3   7   7  642.19   29.30
   3   7  -7  629.84   31.93
   3  -7   7  605.95   25.30
   3   7  -7  580.60   55.04
   3  -7   7  637.82   29.66
  -3  -7  -7  545.39   39.47
  -3  -7   7  645.87   31.82
   3   7   7  622.58   25.66
   3  -7  -7  683.06   61.02
  -3  -7   7  640.89   57.65
   3   7   7  664.70   40.63
   3  -7  -7  664.83   56.01
  -3   7  -7  636.36   29.37
   3  -7  -7  634.66   27.98
  -5   7   7  223.76   16.02
   5  -7   7  195.45   10.25
   5   7  -7  228.22   45.38
  -5  -7  -7  181.42   23.39
  -5   7   7  212.40   18.72
   5   7  -7  246.25   18.80
  -5  -7   7  225.48   15.68
   5   7   7  220.52   12.30
   5  -7  -7  177.03   44.37
  -5  -7   7  168.86   45.94
  -5  -7   7  198.88   17.75
   5  -7  -7  213.76   15.31
   5  -7  -7  199.36   40.20
   5   7   7  204.75   21.60
  -7  -7  -7  231.20   27.79
   7  -7   7  211.44   11.49
  -7   7   7  248.84   21.82
   7   7  -7  332.43   64.31
   7   7   7  240.94   14.80
   7  -7  -7  174.17   45.90
   7  -7  -7  278.84   61.01
   7   7   7  220.61   23.27
   7   7   7  215.60   14.75
   7  -7  -7  218.29   17.69
  -7  -7   7  230.23   20.78
  -7  -7   7  195.48   54.75
   9  -7   7   87.42    9.09
  -9   7   7   85.19   17.04
   9   7  -7   36.19   61.96
   9  -7  -7   29.06   44.37
   9   7   7   93.20   10.08
   9  -7  -7  -26.35   53.83
  -9  -7   7   85.57   16.63
  -9  -7   7  107.38   58.25
   9   7   7   70.25   20.97
   0  -8   7   23.44   15.80
   0   8  -7    5.55   14.72
   0   8  -7   28.61    6.45
   0   8   7   20.86    5.31
   0  -8  -7   -2.21   12.27
   0  -8   7   27.42    6.68
   0  -8  -7   23.64   19.57
   0   8   7   17.71    6.88
  -2   8   7   99.09   11.02
   2  -8   7   81.35    7.80
  -2   8   7  103.61   14.92
   2  -8   7  116.72   19.58
  -2  -8  -7   84.89   20.82
   2   8  -7   93.37   25.12
   2   8  -7  106.35   13.66
  -2   8  -7   64.12   15.44
   2  -8  -7   98.01    8.69
   2   8   7   79.59   20.49
  -2  -8   7  100.66   28.92
   2   8   7   88.89    7.70
  -2  -8   7   95.27   11.82
   2  -8  -7   44.94   25.97
  -2   8  -7   97.41    8.33
   4   8  -7   35.17    9.45
  -4   8   7   32.71    7.85
  -4   8   7   21.41    8.21
   4   8  -7   71.76   30.40
  -4  -8  -7   16.71   16.30
   4  -8   7   28.01    4.67
   4   8   7   22.53    5.22
   4   8   7   28.54   15.16
  -4  -8   7    6.85   21.96
  -4  -8   7   24.20    7.93
   4  -8  -7  -25.44   20.67
   4  -8  -7   19.17    6.62
   4  -8  -7   43.25   24.43
  -6  -8  -7   68.25   20.76
   6   8  -7   15.46   32.93
  -6   8   7   31.92    9.83
   6  -8   7   31.67    5.07
   6  -8  -7   35.61    8.83
   6   8   7   27.01   15.52
  -6  -8   7   45.02   10.92
  -6  -8   7   20.06   36.90
   6  -8  -7   78.32   37.17
   6  -8  -7   42.73   34.57
   6   8   7   34.78    7.25
   8  -8   7   15.07    4.86
  -8   8   7    8.87    8.46
  -8  -8  -7   22.35   23.27
   8   8  -7   -6.44   44.82
   8   8   7   11.74   17.44
  -8  -8   7   23.94   48.76
  -8  -8   7   13.31    8.85
   8  -8  -7   18.88   45.81
   8  -8  -7    6.96    7.73
   8   8   7   15.90    6.84
   8  -8  -7    3.15   40.86
   1   9  -7  396.11   39.37
  -1   9   7  341.19   21.67
   1   9  -7  347.29   20.30
  -1   9   7  355.39   18.32
   1  -9   7  327.35   32.66
  -1  -9  -7  360.89   34.83
   1  -9   7  341.50   17.98
   1   9   7  347.59   37.71
  -1  -9   7  298.20   37.13
  -1   9  -7  355.46   32.37
  -1   9  -7  358.11   18.74
   1  -9  -7  320.41   33.68
  -1  -9   7  331.94   19.47
   1  -9  -7  361.05   16.68
   1   9   7  335.25   17.18
   1  -9  -7  224.13   40.35
   3  -9   7  478.08   33.21
  -3   9   7  545.80   26.49
   3   9  -7  559.35   54.22
   3  -9   7  519.02   22.12
  -3  -9  -7  505.53   40.63
   3   9  -7  539.82   29.22
  -3   9   7  534.45   29.80
   3  -9  -7  534.07   58.14
   3  -9  -7  531.54   25.28
   3   9   7  505.96   39.76
  -3   9  -7  558.60   32.27
  -3  -9   7  521.81   55.04
  -3  -9   7  538.92   28.52
   3   9   7  560.36   23.47
   3  -9  -7  530.99   51.32
  -5  -9  -7  162.66   27.34
  -5   9   7  186.80   18.08
  -5   9   7  205.09   16.67
   5  -9   7  190.00   10.81
   5   9  -7  216.38   18.92
   5   9  -7  236.75   44.97
  -5  -9   7  201.30   14.97
   5   9   7  145.79   24.49
  -5  -9   7  186.83   17.24
   5  -9  -7  200.45   15.38
   5  -9  -7  136.46   37.04
  -5  -9   7  151.95   39.46
   5   9   7  192.46   12.74
   5  -9  -7  216.33   50.10
  -7   9   7  224.24   21.75
  -7  -9  -7  191.14   32.27
   7  -9   7  204.80   12.30
   7   9  -7  244.75   60.54
  -7  -9   7  215.41   57.79
   7  -9  -7  175.27   48.51
   7   9   7  286.95   31.38
   7   9   7  221.17   15.62
  -7  -9   7  236.98   21.00
   7  -9  -7  245.12   62.70
   7  -9  -7  214.79   18.25
   7   9   7  243.72   16.43
   9  -9   7   75.91    9.33
  -9  -9  -7   72.51   32.11
  -9   9   7   47.18   13.37
   9   9  -7   38.51   57.02
   9   9   7   68.58   10.49
   9   9   7   55.47   25.75
  -9  -9   7   70.94   15.09
   9  -9  -7   77.52   48.80
   9  -9  -7   30.31   57.52
   9  -9  -7   61.32   13.20
   0 -10   7    4.45    4.55
   0 -10  -7    4.23   15.24
   0  10  -7   25.00   17.08
   0  10   7   -4.23    3.45
   0  10  -7    4.23    5.21
   0 -10   7    9.76   15.44
   0 -10  -7    2.87    3.25
   0  10   7   13.27   18.78
  -2 -10  -7   63.31   20.68
  -2  10   7   70.42    9.69
   2  10  -7   63.12   10.78
   2 -10   7   59.30    7.46
   2  10  -7   64.43   23.19
  -2  10   7   50.98    8.77
   2 -10   7   32.39   16.18
  -2  10  -7   56.21    7.81
  -2 -10   7   38.24   23.26
   2  10   7   61.38   21.07
   2 -10  -7   67.93    8.75
   2 -10  -7   69.46   27.88
  -2 -10   7   52.76    9.52
  -2  10  -7   53.45   16.56
   2  10   7   67.39    8.06
   2 -10  -7   50.76   28.21
   4  10  -7   46.58   27.26
   4 -10   7    5.32   11.94
  -4 -10  -7   38.72   20.38
   4 -10   7   26.17    5.44
  -4  10   7   17.32    8.71
   4  10  -7   41.20   10.09
  -4  10   7   34.82    8.12
   4  10   7   29.19    6.38
  -4 -10   7   31.89   29.51
   4 -10  -7   30.34   22.75
   4  10   7   36.93   17.38
   4 -10  -7   12.67   28.40
  -4 -10   7   23.04    8.16
  -4  10  -7   25.98   11.99
   4 -10  -7   38.43    8.25
   6  10  -7   87.96   40.40
   6 -10   7   46.44    6.49
  -6 -10  -7   12.65   21.22
  -6  10   7   34.77   10.42
   6 -10  -7    0.26   27.56
   6 -10  -7   44.13   40.04
   6  10   7   40.29    8.15
  -6 -10   7   36.21   10.81
   6  10   7   24.26   18.80
  -6 -10   7   26.27   39.88
   6 -10  -7   30.48    8.70
   8  10  -7   83.15   48.77
   8 -10   7   20.31    5.76
  -8  10   7   10.44   11.28
  -8 -10  -7  -12.70   28.19
  -8 -10   7   26.23   11.42
  -8 -10   7    1.02   51.58
   8 -10  -7    6.05   41.33
   8  10   7   31.38   23.19
   8 -10  -7  -52.16   48.93
   8  10   7   34.50    8.63
   8 -10  -7   10.14    8.00
   1  11  -7  236.40   16.54
  -1  11   7  240.91   18.30
   1 -11   7  223.26   14.15
  -1 -11  -7  237.59   10.84
   1  11  -7  203.03   33.81
  -1  11   7  256.04   15.14
   1 -11   7  197.98   31.54
  -1 -11  -7  193.61   30.74
   1  11   7  221.55   13.81
   1 -11  -7  186.02   32.00
  -1  11  -7  230.93   14.93
   1 -11  -7  236.00   13.54
  -1 -11   7  170.78   33.26
  -1 -11   7  219.73   15.76
   1  11   7  239.31   35.60
  -1  11  -7  187.81   28.73
  -3  11   7  339.09   20.15
  -3  11   7  337.33   23.46
   3  11  -7  353.02   49.36
   3 -11   7  355.27   32.72
   3  11  -7  326.31   22.55
  -3 -11  -7  289.16   37.04
   3 -11   7  369.69   17.88
  -3  11  -7  355.87   17.21
   3 -11  -7  361.10   19.86
  -3  11  -7  326.14   29.50
  -3 -11   7  447.45   52.22
   3 -11  -7  386.34   43.51
   3  11   7  402.46   18.92
   3 -11  -7  286.20   55.80
   3  11   7  374.87   38.89
  -3 -11   7  376.31   22.95
   5 -11   7  126.03   18.05
  -5 -11  -7  152.42   30.85
  -5  11   7  166.32   21.02
   5  11  -7  175.40   46.06
   5 -11   7  143.15   10.19
  -5 -11   7  177.67   16.96
   5 -11  -7  107.20   35.53
   5 -11  -7  127.76   14.58
   5  11   7  139.73   12.21
  -5 -11   7   63.55   36.20
   5 -11  -7   77.00   42.28
   5  11   7  122.33   26.55
   7  11  -7  192.61   53.11
  -7  11   7  121.81   17.92
  -7 -11  -7  125.10   32.25
   7 -11   7  144.26   10.73
   7 -11  -7  117.41   43.43
   7  11   7  112.15   27.05
   7 -11  -7  240.10   62.34
   7  11   7  142.56   14.21
   7 -11  -7  156.19   16.11
  -7 -11   7  220.86   59.90
   7  11   7  151.60   14.28
  -7 -11   7  180.89   22.01
   9  11  -7   47.48   65.64
  -9 -11  -7   40.63   38.39
  -9  11   7   47.53   14.66
   9 -11   7   43.38    8.02
   9  11   7   70.69   11.03
   9 -11  -7   24.64   52.09
  -9 -11   7   45.33   12.94
   9 -11  -7   49.94   11.63
   9 -11  -7  -21.50   62.41
   9  11   7   48.23   30.82
   0  12   7    4.25    4.56
   0 -12   7   -1.39    4.35
   0 -12   7  -13.72   16.67
   0 -12  -7   -0.47   16.42
   0  12  -7  -14.68   16.15
   0  12  -7    0.85    4.47
   0 -12  -7    1.82    3.89
   0  12   7   18.90   21.35
   2 -12   7   50.89    7.98
  -2  12   7   49.47   11.44
  -2 -12  -7   45.31   21.76
   2 -12   7   11.73   17.63
  -2  12   7   51.62    8.65
   2  12  -7   12.42   20.91
   2  12  -7   48.65   10.37
   2 -12   7   50.50    7.27
  -2 -12   7   38.98   27.03
  -2  12  -7   41.11    7.23
   2 -12  -7   34.29    7.70
  -2 -12   7   48.14    9.63
   2  12   7   26.28   19.48
   2  12   7   41.59    7.57
   2 -12  -7   41.62   21.32
  -2  12  -7   45.78   17.93
   4  12  -7   57.08   11.81
  -4  12   7   18.19    7.94
  -4  12   7   31.14    8.85
  -4 -12  -7   32.56   24.08
   4  12  -7   56.08   31.78
   4 -12   7   24.82   15.54
   4 -12   7   35.52    6.63
   4 -12  -7   61.17   38.82
  -4 -12   7   31.99    9.33
  -4  12  -7   34.42   16.91
  -4 -12   7    1.74   28.64
   4 -12  -7   43.22    9.22
   4  12   7   31.52    7.41
   4  12   7   27.04   22.32
   4 -12  -7    7.44   23.73
   6 -12   7   35.06   16.98
  -6 -12  -7  -16.13   24.70
   6 -12   7   20.03    6.10
  -6  12   7   44.82   13.36
   6  12  -7   44.18   36.46
   6 -12   7   25.21   15.58
   6 -12  -7   18.66    8.04
   6 -12  -7   80.71   38.42
   6  12   7   27.62   22.70
  -6 -12   7   28.53   37.62
   6  12   7   48.14    9.42
   6 -12  -7   35.75   41.72
  -6 -12   7   22.88    9.81
   8 -12   7   16.44   15.08
  -8 -12  -7  -44.39   32.47
   8  12  -7    8.78   50.08
  -8  12   7   15.66   10.00
   8 -12   7   10.85    5.54
   8 -12   7    4.49   14.57
   8  12   7    6.95    7.30
   8 -12  -7    5.34   44.71
   8  12   7    6.18   26.62
   8 -12  -7   22.81   55.53
   8 -12  -7   14.47    9.45
  -8 -12   7    9.66    9.46
   1  13  -7  115.26   29.57
   1  13  -7  142.67   13.43
   1 -13   7  138.57   11.13
  -1  13   7  127.12   11.44
   1 -13   7  126.58   11.59
  -1 -13  -7   85.61   26.97
  -1 -13  -7  142.51    9.18
  -1  13   7  141.78   32.99
   1  13   7  115.34   10.63
   1  13   7  181.37   34.76
  -1  13  -7   54.66   22.21
  -1 -13   7  151.65   34.42
  -1  13  -7  127.98   11.66
  -1 -13   7  109.55   12.20
   1 -13  -7  117.69   10.78
   3  13  -7  236.84   19.34
  -3  13   7  219.22   19.56
   3  13  -7  321.02   50.92
  -3 -13  -7  240.83   37.46
   3 -13   7  201.66   30.82
  -3  13   7  246.19   16.92
   3 -13   7  237.23   14.68
   3 -13  -7  213.63   49.02
   3  13   7  254.37   15.74
   3 -13  -7  252.98   40.99
  -3  13  -7  239.45   13.75
  -3  13  -7  269.69   31.07
  -3 -13   7  243.44   18.35
  -3 -13   7  171.84   41.37
   3 -13  -7  245.17   16.78
   3  13   7  223.39   38.00
   5 -13   7  100.11    9.60
   5  13  -7  135.20   43.16
  -5 -13  -7  102.51   31.91
  -5  13   7   92.69   14.87
   5 -13   7   86.91   21.72
   5  13   7   69.54   27.29
  -5 -13   7  110.84   46.94
  -5  13  -7  106.68   22.63
   5 -13  -7   67.27   39.39
   5 -13  -7   89.82   13.04
   5 -13  -7   39.26   30.17
  -5 -13   7   85.93   14.10
   5  13   7  103.80   12.87
  -7 -13  -7   73.51   36.18
   7 -13   7   89.31   23.93
   7  13  -7  110.14   50.58
   7 -13   7  119.17   10.92
   7 -13   7   93.33   23.11
  -7  13   7   97.78   16.36
   7 -13  -7   71.01   46.18
   7 -13  -7  109.15   56.69
   7  13   7   73.61   29.51
   7  13   7  127.26   13.75
  -7 -13   7  114.69   18.02
   7  13   7  143.42   14.43
   7 -13  -7   95.56   14.53
   9 -13   7   36.42    7.94
   9 -13  -7   29.44   10.92
   0  14  -7   15.08   20.33
   0  14   7   20.11    6.50
   0 -14   7    1.94   19.93
   0  14  -7   19.90    7.26
   0  14   7   22.27   22.84
   0 -14   7   29.77    7.91
   0 -14  -7    6.87   21.09
   0 -14   7   22.21    7.08
   0 -14  -7   19.24    5.87
   2 -14   7   30.69    7.74
  -2 -14  -7   61.84    6.16
  -2 -14  -7   17.87   24.01
  -2  14   7   47.06   11.00
  -2  14   7   57.54    9.97
   2  14  -7   53.00   11.06
   2  14  -7   53.61   27.32
  -2  14  -7   58.77    8.93
   2  14   7   45.52   24.47
   2  14   7   66.64    9.14
  -2 -14   7   46.70    9.62
   2 -14  -7   46.33    8.88
   2 -14  -7   49.95   24.02
  -2 -14   7   76.76   30.49
  -2  14  -7   22.62   18.01
   4 -14   7    7.34    5.49
   4 -14   7   15.67   20.06
  -4 -14  -7  -16.61   27.04
   4  14  -7    0.24   28.10
  -4  14   7    7.19    7.10
   4 -14  -7   10.60    7.03
   4 -14  -7   31.45   26.32
  -4  14  -7   29.71   19.60
   4  14   7   25.52    7.73
   4 -14  -7  -19.09   30.36
  -4 -14   7   11.68    7.34
  -4 -14   7    5.43   29.33
   4  14   7    5.31   23.66
   6 -14   7   11.67    6.25
   6  14  -7    8.36   45.00
   6 -14   7   35.08   22.45
  -6  14   7    7.44    9.49
  -6 -14  -7   63.72   34.22
   6 -14   7   14.85   22.73
   6  14   7   10.02    7.69
   6 -14  -7    8.93   30.86
  -6 -14   7   17.47    9.12
   6 -14  -7   18.61   44.04
   6 -14  -7   14.65    8.45
   6  14   7   34.11   26.91
   8  14  -7   70.77   58.58
  -8 -14  -7   48.47   40.71
   8 -14   7   33.43   25.97
  -8  14   7    8.44   11.04
   8 -14   7   -3.80   26.58
   8 -14   7   10.93    6.35
   8 -14  -7   38.06   62.68
   8  14   7  -51.81   29.85
   8 -14  -7   10.43    8.94
   8 -14  -7    1.67   43.84
  -8 -14   7   14.64   10.33
  -8 -14   7  -13.48   58.22
  -1 -15  -7  152.18   34.11
  -1  15   7  187.78   14.63
  -1  15   7  188.42   40.36
   1 -15   7  200.62   15.06
  -1 -15  -7  201.06   12.55
   1  15  -7  188.16   16.46
   1  15  -7  152.73   33.34
  -1  15  -7  234.40   36.06
  -1 -15   7  201.77   15.97
   1 -15  -7  176.74   13.95
  -1  15  -7  185.48   14.72
   1  15   7  244.75   42.82
   1 -15  -7  177.81   35.96
  -1 -15   7  212.90   16.27
  -1 -15   7  158.37   36.29
   1  15   7  191.80   14.38
   3 -15   7  131.78   34.44
   3 -15   7  175.68   13.47
  -3 -15  -7  177.24   37.82
   3  15  -7  204.30   41.61
  -3  15   7  151.99   17.42
   3  15  -7  207.24   18.31
   3 -15  -7  179.88   15.38
   3 -15  -7  161.79   37.34
  -3  15  -7  200.40   12.97
  -3 -15   7  193.54   17.23
  -3 -15   7  107.81   37.60
  -3  15  -7  141.66   27.37
   3  15   7  214.97   15.20
   3  15   7  115.60   31.52
   5 -15   7   63.48   24.97
  -5 -15  -7   17.22   33.31
   5  15  -7   50.63   37.00
  -5  15   7   47.50   12.56
   5 -15   7   90.70   10.59
  -5 -15   7   88.94   14.34
   5 -15  -7   44.82   45.24
  -5  15  -7   68.50   25.30
   5 -15  -7   61.50   37.41
   5  15   7   93.52   12.20
   5  15   7   36.18   28.32
   5 -15  -7   73.00   12.38
   7 -15   7   51.91   29.47
  -7  15   7   74.20   15.01
   7 -15   7   61.49    9.41
   7 -15   7   54.01   26.65
   7  15  -7   83.01   55.29
  -7 -15  -7   43.76   41.24
   7  15   7   13.03   29.20
  -7 -15   7   68.10   14.24
   7 -15  -7   56.71   12.66
   7 -15  -7   65.54   41.92
   7 -15  -7   27.82   59.28
   0 -16   7   33.64    8.10
   0 -16  -7   31.93    7.35
   0 -16   7   33.01    9.28
   0  16   7   39.97    8.87
   0  16  -7    0.80   22.79
   0  16   7   37.30   30.20
   0  16  -7   39.16    9.26
   2  16  -7   67.53   12.62
  -2 -16  -7   35.81   26.70
  -2  16   7   12.73   32.02
   2  16  -7   42.64   30.02
  -2 -16  -7   58.57    7.46
   2 -16   7   31.82    8.44
  -2 -16   7   61.68   11.09
  -2  16  -7   43.73   21.43
  -2  16  -7   63.04    9.85
   2  16   7   34.42    8.59
   2 -16  -7   38.57    9.16
   2 -16  -7   47.25   27.30
  -2 -16   7   48.55   10.71
   2  16   7   40.25   28.40
   4  16  -7  -20.87   31.64
  -4  16   7   12.78    8.73
   4 -16   7    7.42    6.34
  -4 -16  -7  -11.49   29.14
   4 -16   7   22.44   23.29
   4 -16  -7   -7.34   38.56
   4  16   7   25.95   28.24
   4 -16  -7   17.29    8.39
   4  16   7    7.99    7.12
   4 -16  -7   54.82   29.68
  -4 -16   7    6.47    7.66
  -4  16  -7   14.86    5.00
  -4  16  -7   -9.76   21.87
  -6  16   7    6.22    8.59
  -6 -16  -7    2.71   34.78
   6 -16   7   12.09    6.66
   6  16  -7  -43.40   42.05
   6 -16   7  -23.21   25.76
   6 -16  -7   -6.91   56.32
   6  16   7  -14.90   31.32
   6 -16  -7   12.12    8.96
   6 -16  -7   27.40   35.84
  -6 -16   7    5.37    8.07
   6  16   7    8.93    8.87
   8  16  -7   10.48   64.12
  -8  16   7   -0.65    9.74
   8 -16   7   31.60   36.59
  -8 -16  -7  -28.13   45.49
   8 -16   7    5.19    6.05
   8 -16  -7   13.31    9.68
   8 -16  -7  -53.61   46.60
   8  16   7   16.40   38.84
  -8 -16   7   17.07   11.00
   8 -16  -7  -33.13   66.79
  -8 -16   7  -41.93   71.70
  -1 -17  -7  152.73   12.30
  -1  17   7  174.32   44.99
   1  17  -7  147.50   15.37
  -1 -17  -7  121.56   36.08
   1 -17   7  139.57   14.06
   1  17  -7  101.27   35.86
  -1  17  -7   67.49   29.50
   1 -17  -7  128.14   34.25
  -1 -17   7  160.37   14.95
  -1 -17   7  131.87   15.87
   1  17   7  122.50   13.08
   1  17   7   85.91   35.65
   1 -17  -7  139.88   13.66
  -1  17  -7  174.65   14.60
   3 -17   7  135.56   13.16
   3  17  -7  140.92   43.12
  -3 -17  -7   77.69   35.88
  -3  17   7  127.47   19.59
  -3 -17  -7  127.08    9.13
   3 -17  -7  126.10   14.83
  -3 -17   7  121.74   15.64
  -3  17  -7   87.64   28.00
  -3 -17   7  131.55   16.92
   3  17   7  105.06   37.17
   3  17   7  139.44   15.31
  -3  17  -7  133.72   11.66
   3 -17  -7   68.68   34.67
   5  17  -7   26.86   45.01
   5 -17   7   54.45    9.36
  -5 -17  -7   48.00   38.45
  -5  17   7   23.81   10.26
   5 -17   7   68.46   31.48
   5  17   7   23.27   29.89
   5 -17  -7   77.00   56.59
   5 -17  -7   42.47   10.91
  -5 -17   7   -1.82   46.65
  -5 -17   7   57.34   12.38
   5 -17  -7   57.05   35.83
  -5 -17   7   58.94   13.35
  -5  17  -7   35.36   27.28
   7 -17   7   28.01    8.28
  -7 -17  -7  -43.77   43.49
  -7  17   7   57.26   15.38
   7 -17   7   33.79   41.07
   7 -17   7   44.51   37.42
   7  17  -7   -0.11   53.82
   7  17   7   63.56   38.73
  -7 -17   7   24.66   58.72
   7 -17  -7  -62.60   39.10
   7 -17  -7   23.52   63.45
   7 -17  -7   28.15   11.22
  -7 -17   7   52.55   13.77
  -7 -17   7   53.15   13.70
   0  18  -7   14.19    8.60
   0 -18  -7   27.86   29.10
   0 -18  -7   22.74    7.73
   0 -18   7   25.78   28.33
   0  18  -7    6.21   26.59
   0 -18   7   19.72    8.80
   0  18   7  -20.76   29.84
   2  18  -7   59.29   35.89
   2  18  -7   51.56   12.89
  -2 -18  -7   33.70    7.14
   2 -18   7   37.37    9.18
  -2  18   7   57.75   38.57
  -2 -18  -7  -15.40   27.71
   2  18   7   27.62   33.09
  -2 -18   7   16.74    8.08
  -2  18  -7   17.62    7.33
  -2 -18   7   22.89    9.85
   2 -18  -7  -25.66   27.85
   2 -18  -7   18.84    8.65
  -2  18  -7    6.97   23.20
  -2 -18   7   -5.82   30.88
   4 -18   7    9.73    7.17
  -4  18   7   14.71    8.19
   4 -18   7   34.82   29.41
  -4 -18  -7  -20.28   34.81
   4  18  -7   33.21   41.46
   4  18   7    4.91   30.85
  -4  18  -7   30.51   27.71
   4 -18  -7   10.01    8.04
  -4  18  -7   27.46    5.80
   4 -18  -7   36.76   31.58
  -4 -18   7   35.51   44.69
  -4 -18   7   14.97    8.63
  -4 -18   7   10.15    9.50
  -6  18   7   11.68   10.44
   6 -18   7    4.05   32.88
   6  18  -7  -57.37   45.91
   6 -18   7   17.14    7.43
  -6 -18  -7  -53.51   42.59
   6 -18  -7    8.52   37.34
  -6 -18   7   33.84   49.84
   6 -18  -7  -68.86   51.81
  -6  18  -7  -23.02   30.01
  -6 -18   7    5.33    9.10
   6  18   7   21.94   35.52
  -6 -18   7   16.03   11.39
   6 -18  -7   19.61    9.95
  -1 -19  -7   67.03   10.48
   1 -19   7  101.79   36.62
   1  19  -7   94.65   14.53
   1 -19   7   65.59   11.65
  -1  19   7   31.38   36.75
   1  19  -7   83.45   35.90
  -1 -19   7   63.13   37.82
  -1  19  -7   94.60   13.49
  -1 -19   7   68.87   12.32
   1 -19  -7   91.35   37.97
   1 -19  -7   83.53   12.24
   1  19   7   54.56   35.98
  -1  19  -7   42.88   29.37
  -3  19   7  101.29   48.06
   3  19  -7    9.96   35.10
   3 -19   7   51.51    9.74
  -3 -19  -7   58.38   38.55
   3 -19   7   64.88   32.73
  -3 -19  -7   40.74    7.23
  -3 -19   7   58.67   13.34
  -3  19  -7   81.82   11.01
  -3 -19   7   66.74   40.83
   3  19   7    6.05   32.85
  -3  19  -7   34.63   27.31
  -3 -19   7   61.65   13.55
   3 -19  -7    3.62   32.23
   3 -19  -7   59.64   11.54
   5  19  -7  110.66   51.01
  -5  19   7   31.82   10.96
   5 -19   7   54.48    9.75
   5 -19   7   22.55   33.93
  -5 -19  -7  -16.79   42.65
   5 -19  -7   90.06   65.78
  -5 -19   7   63.32   13.64
  -5 -19   7   46.72   12.14
   5  19   7   12.44   36.04
   5 -19  -7  -15.59   34.94
   5 -19  -7   34.45   11.04
  -5 -19   7   33.02   47.95
  -5  19  -7   22.27   33.02
   7 -19   7   41.12    9.45
   7 -19  -7   17.38   10.72
   0 -20  -7    2.81   31.47
   0  20  -7    8.27    7.92
   0 -20  -7    0.17    6.43
   0 -20   7   22.61   35.00
   0 -20   7    9.72    8.36
   0  20  -7   18.36   33.01
   0  20   7    2.14   38.03
   2 -20   7    8.65   32.02
  -2  20   7   26.56   42.18
  -2 -20  -7   -7.24   33.34
   2  20  -7   24.94   38.63
  -2 -20  -7    8.37    6.34
   2 -20   7    2.10    7.41
  -2 -20   7    9.11    8.53
   2 -20  -7  -53.86   31.26
  -2 -20   7   -2.82   35.51
   2 -20  -7    7.55    7.94
  -2  20  -7   -5.00   28.45
   2  20   7    2.24   36.27
  -2  20  -7   19.01    8.04
  -4 -20  -7   27.04   43.13
   4 -20   7   15.64   35.04
   4  20  -7   30.07   42.64
  -4 -20  -7    7.81    4.66
   4 -20   7    2.83    6.95
  -4  20   7   19.36   12.43
  -4 -20   7    9.35    9.41
   4 -20  -7    4.50    8.31
   4 -20  -7   50.14   35.90
   4  20   7   -8.64   37.71
  -4  20  -7    4.32   31.92
  -4 -20   7   -8.59    8.04
  -4 -20   7   20.81   49.59
   6  20  -7  -47.53   53.57
  -6 -20  -7   39.36   51.06
  -6  20   7   15.04   10.48
   6 -20   7    9.45    7.39
   6 -20  -7    4.13   41.51
  -6 -20   7    6.90    9.51
  -6 -20   7   17.02   11.73
   6  20   7  -36.40   41.50
   6 -20  -7   54.48   77.16
   6 -20  -7    6.30    9.56
  -6 -20   7   97.93   61.21
  -1 -21  -7   13.84   36.90
   1 -21   7   47.42   11.38
  -1  21   7   66.10   42.20
  -1 -21  -7   29.76    8.39
   1 -21   7   28.55   36.14
   1  21  -7  -11.15   37.41
   1  21   7   38.57   43.09
  -1 -21   7   50.12   11.54
  -1  21  -7   49.14   11.37
   1 -21  -7   18.13   31.40
  -1 -21   7  -16.09   36.11
  -1  21  -7    0.00   28.72
   1 -21  -7   27.30    9.70
   3 -21   7   14.83   37.23
  -3 -21  -7   49.94    8.87
  -3  21   7    6.12   53.45
  -3 -21  -7  -38.03   40.96
   3  21  -7  -12.95   42.91
   3 -21   7   41.39   10.06
  -3  21  -7   55.82    9.84
   3 -21  -7   33.94   10.88
  -3  21  -7   71.03   33.29
   3  21   7   13.51   40.28
   3 -21  -7   21.55   34.95
  -3 -21   7   79.97   54.05
  -3 -21   7   31.81   11.90
  -5  21   7   16.19   11.42
   5 -21   7   28.73    9.65
  -5 -21  -7   32.92   51.77
   5  21  -7   72.23   51.16
   5 -21  -7   -4.94   41.89
  -5 -21   7   28.60   12.69
   5  21   7   38.31   43.98
  -5 -21   7   51.89   13.41
  -5 -21   7   77.62   57.15
   5 -21  -7   53.10   68.11
   5 -21  -7   28.12   10.90
   0 -22   7   18.66   38.81
   0 -22  -7   14.33   40.54
   0  22   7   46.01   49.96
   0  22  -7    9.78   34.65
   0 -22  -7   -0.75    7.07
   0 -22   7   11.10    8.79
  -2 -22  -7   11.36    7.56
   2 -22   7   16.46    8.83
   2 -22   7   51.35   39.35
   2  22  -7  -14.33   43.74
  -2  22   7  -57.52   46.53
   2 -22  -7   13.24    9.32
  -2  22  -7    8.26    7.93
   2 -22  -7    1.17   37.92
   2  22   7   30.53   45.49
  -2 -22   7   -5.08    8.10
  -2 -22   7  -22.12   47.45
  -2  22  -7   29.90   31.72
   4  22  -7   19.73   48.89
   4 -22   7    8.11    7.66
  -4 -22  -7    9.71    5.62
  -4  22   7    3.47    8.69
  -4 -22  -7  -40.62   47.53
   4 -22  -7   22.56   39.81
  -4 -22   7   -7.85   49.75
   4  22   7  106.11   45.84
  -4 -22   7    5.04   10.27
  -4  22  -7    0.10    1.85
   4 -22  -7    8.66    9.46
   1 -23   7   18.99   44.80
   1  23  -7  -22.93   36.28
  -1 -23  -7   20.17    8.94
   1 -23   7   33.59   11.09
  -1 -23  -7   -3.38   39.71
  -1  23   7   47.21   48.70
  -1 -23   7   20.07   47.60
   1 -23  -7   26.60   10.24
   1  23   7   22.16   44.21
  -1  23  -7   29.62   36.18
   1 -23  -7   27.71   39.43
  -1  23  -7   53.07   11.10
  -1 -23   7   22.94   10.86
  -3 -23  -7   18.04    8.04
   3  23  -7   31.22   53.17
  -3 -23  -7  -29.58   42.08
   3 -23   7   20.17    9.36
  -3  23   7   50.18   64.05
  -3 -23   7   68.99   62.16
   3 -23  -7   -7.77   41.66
   3  23   7   17.38   47.07
   3 -23  -7   17.10   10.30
  -3 -23   7   21.96   11.31
   0  24  -7  -50.34   38.74
   0  24   7  -32.59   56.61
   0 -24   7   14.72   10.71
   0 -24  -7    1.13    7.92
   0 -24   7   58.77   51.05
   0 -24  -7   26.46   44.81
  -2 -24  -7   -3.54    7.42
  -2 -24  -7  -49.94   47.74
   2  24  -7   14.71   45.19
  -2  24   7   40.91   68.64
   2 -24   7    7.99    9.17
   2  24   7   -8.03   53.82
  -2 -24   7   -7.51    8.74
   2 -24  -7   -2.50    7.80
  -2  24  -7   11.85    8.67
  -2 -24   7  -32.51   56.68
   2 -24  -7   20.91   49.78
   1 -25   7   14.47   10.24
  -1  25   7   65.52   66.63
  -1 -25  -7   34.93   52.54
  -1 -25  -7   37.07   10.34
   1 -25  -7   10.08   48.78
   1 -25  -7   12.65    9.75
  -1 -25   7   20.73   11.75
   1  25   7  -81.08   52.58
   0   0   8  375.05   17.83
   0   0  -8  418.96   36.95
   0   0  -8  359.62   33.18
   0   0   8  383.18   21.66
   2   0  -8  693.48   58.13
  -2   0  -8  749.10   34.13
  -2   0   8  767.90   36.58
  -2   0  -8  767.43   35.95
   2   0  -8  718.32   55.92
   2   0   8  763.58   33.37
   2   0   8  721.93   28.57
  -2   0   8  762.42   32.56
  -4   0   8  335.30   22.76
   4   0  -8  363.85   57.96
   4   0   8  299.79   16.46
   4   0  -8  332.44   21.91
  -4   0   8  303.87   18.80
  -6   0   8  246.87   20.94
   6   0  -8  219.12   50.08
  -8   0   8  118.01   16.86
   8   0  -8  104.61   54.98
  -1   1   8   63.94    8.16
   1  -1   8   55.31    9.40
  -1  -1  -8   51.42   13.94
  -1  -1  -8   56.93   17.61
   1  -1   8   67.90    6.77
   1   1  -8   60.26   21.63
   1   1  -8   51.71   19.60
  -1   1   8   69.54   11.06
  -1   1  -8   60.20   14.37
   1   1   8   75.26   10.94
   1  -1  -8   59.54   22.94
  -1   1  -8   48.77   14.59
  -1  -1   8   45.51    9.21
  -1  -1   8   71.54    8.48
   1  -1  -8   38.49   18.59
   1   1   8   61.31    6.65
  -3   1   8   60.27    9.13
   3   1  -8   81.31   28.87
   3   1  -8   43.06    9.15
   3  -1   8   62.68    8.44
  -3   1   8   41.62    9.18
   3   1   8   67.73    9.08
  -3  -1   8   82.90   27.42
   3  -1  -8   35.78   24.75
  -3  -1   8   43.06    9.43
  -3  -1   8   63.34    9.27
   3   1   8   49.31    4.40
   3  -1  -8   62.52   24.92
   5   1  -8   78.53   35.23
  -5   1   8   36.15    8.49
   5  -1   8   37.06    5.50
  -5   1   8   23.30    8.52
  -5  -1   8   39.53   35.29
   5   1   8   34.46    5.98
  -5  -1   8   16.51    8.27
   5  -1  -8   84.99   40.00
  -5  -1   8   31.63    8.37
  -7   1   8    6.66    8.26
   7   1  -8   53.00   43.13
  -7  -1   8    7.20    7.72
   7  -1  -8   59.14   44.09
   7  -1  -8   26.68   35.82
  -7  -1   8   26.88   48.14
   9   1  -8   25.87   56.87
  -9   1   8   10.24    9.14
   9  -1  -8   26.22   56.33
   9  -1  -8   67.66   59.93
  -9  -1   8   25.64   11.27
   0  -2   8  409.19   18.71
   0  -2  -8  407.62   34.73
   0   2   8  401.04   22.94
   0   2  -8  409.73   36.03
   0   2  -8  456.44   36.55
   0  -2   8  384.87   22.13
   0   2   8  411.14   19.16
   0  -2  -8  452.53   39.59
  -2   2   8  577.89   30.21
   2  -2   8  565.83   26.20
  -2   2   8  527.08   25.68
  -2  -2  -8  452.91   31.47
   2   2  -8  628.33   53.40
  -2  -2  -8  519.22   30.61
   2   2  -8  524.48   28.58
  -2   2  -8  574.42   27.72
   2   2   8  628.23   27.93
   2  -2  -8  548.65   48.28
   2   2   8  548.35   22.68
  -2  -2   8  560.72   25.85
  -2   2  -8  579.33   26.55
  -2  -2   8  615.55   30.24
  -2  -2   8  571.83   54.31
   2  -2  -8  626.54   54.82
  -4   2   8  287.57   17.98
   4   2  -8  245.38   46.48
   4  -2   8  269.88   14.14
  -4   2   8  282.15   20.95
   4   2  -8  260.54   19.67
  -4  -2   8  292.72   20.77
  -4  -2   8  267.81   17.46
   4  -2  -8  280.96   52.02
   4  -2  -8  289.32   49.65
   4   2   8  269.24   11.49
  -4  -2   8  255.95   46.56
   4   2   8  262.37   15.63
   6   2  -8  390.26   64.70
  -6   2   8  249.96   21.52
   6   2   8  238.87   13.37
  -6  -2   8  297.48   59.16
   6   2   8  227.68   11.13
   6  -2  -8  202.67   46.30
   6  -2  -8  281.78   58.04
  -6  -2   8  249.96   21.15
   8  -2   8  104.33    7.18
  -8   2   8  115.81   18.33
   8   2  -8   91.68   57.22
  -8  -2   8  106.95   17.98
   8  -2  -8   54.79   47.11
   8  -2  -8   68.64   51.66
  -1   3   8   44.01    7.03
  -1  -3  -8    9.91   11.17
   1   3  -8   29.61    7.24
   1   3  -8   38.31   18.87
  -1   3   8   40.09    9.47
   1  -3   8   23.06    6.20
  -1  -3  -8   44.32   17.39
   1   3   8   31.59    5.53
  -1   3  -8   45.83   14.82
   1  -3  -8   23.97   17.28
   1   3   8   34.00    8.44
  -1  -3   8    0.83   16.94
  -1  -3   8   21.97    7.44
  -1  -3   8   29.78    5.89
  -1   3  -8   43.73   13.84
   1  -3  -8   32.72   19.47
  -3   3   8   26.26    7.53
   3   3  -8   23.00   21.41
   3   3  -8   38.16    9.62
   3  -3   8   37.90    6.46
  -3   3   8   35.32    7.86
  -3  -3   8   28.65    8.82
  -3  -3   8   30.75    7.20
   3   3   8   40.80    4.90
   3   3   8   38.72    7.74
   3  -3  -8   64.52   26.88
   3  -3  -8   66.87   28.16
  -3  -3   8   31.38   23.89
  -5   3   8   17.81    7.91
   5   3  -8   37.89   30.55
  -5   3   8   22.40    7.31
  -5  -3   8   40.44    8.33
   5  -3  -8   27.46   32.06
   5  -3  -8   15.84   24.74
  -5  -3   8   17.65    8.15
  -5  -3   8   44.21   31.76
   5   3   8   21.71    3.71
   5   3   8   14.54    5.34
  -7   3   8   -0.47    6.97
   7   3  -8   42.30   39.28
  -7  -3   8   37.44   41.00
   7  -3  -8   -2.16   38.57
  -7  -3   8   11.20    8.41
   7   3   8   10.22    4.53
   7  -3  -8  -45.14   37.17
   9  -3   8   16.17    4.75
  -9   3   8    7.16   10.04
   9   3  -8   22.67   60.13
  -9  -3   8   37.71   71.19
  -9  -3   8   15.37   10.58
   9  -3  -8   -8.23   55.26
   9  -3  -8   42.20   60.52
   0   4   8  323.15   19.80
   0  -4  -8  327.18   36.04
   0  -4   8  297.17   32.79
   0   4  -8  292.89   17.97
   0   4   8  269.82   15.20
   0  -4  -8  302.61   30.84
   0  -4   8  299.63   18.14
   0   4  -8  305.71   32.53
  -2  -4  -8  595.73   35.84
  -2   4   8  540.93   26.39
   2   4  -8  560.61   29.41
  -2   4   8  558.78   30.49
  -2  -4  -8  510.30   37.37
   2  -4   8  573.82   26.16
   2   4  -8  645.17   53.75
  -2   4  -8  537.65   28.67
  -2   4  -8  621.22   30.19
  -2  -4   8  570.45   26.23
   2   4   8  606.10   28.62
  -2  -4   8  576.62   29.86
  -2  -4   8  597.99   54.10
   2   4   8  551.25   23.62
   2  -4  -8  665.22   58.56
   2  -4  -8  597.70   50.03
  -4   4   8  226.43   18.85
   4   4  -8  233.33   18.64
  -4   4   8  250.42   16.51
   4   4  -8  232.45   45.77
   4  -4   8  224.29   11.58
  -4  -4   8  248.83   16.22
   4  -4  -8  211.78   41.25
  -4  -4   8  217.27   18.36
   4   4   8  211.69   10.76
   4   4   8  223.97   14.79
  -4  -4   8  175.82   40.81
   4  -4  -8  256.69   48.45
  -6   4   8  180.90   18.86
   6   4  -8  240.80   52.68
  -6  -4   8  192.98   18.56
   6   4   8  167.29   10.42
   6   4   8  199.41   13.01
   6  -4  -8  170.60   45.38
   6  -4  -8  224.13   56.88
  -6  -4   8   74.93   47.50
  -8   4   8  115.40   19.31
   8   4  -8  179.86   59.92
   8  -4   8  102.84    7.40
  -8  -4   8  104.57   16.98
   8  -4  -8   72.93   55.15
   8  -4  -8   -3.53   39.18
  -1  -5  -8   88.43   18.50
   1  -5   8   76.16   18.72
   1   5  -8   99.13   12.20
  -1   5   8   89.98    9.10
  -1  -5  -8   71.16   20.51
  -1   5   8   89.32   13.02
   1   5  -8   91.44   24.69
   1  -5   8   92.01    9.42
  -1  -5   8   90.22   11.99
   1  -5  -8   76.57   25.66
   1   5   8  113.03   14.51
  -1   5  -8  107.63   19.14
   1   5   8   90.21    7.98
  -1  -5   8   92.78   25.58
   1  -5  -8  124.85   26.17
  -3   5   8   30.58    7.18
  -3  -5  -8   50.79   13.90
  -3   5   8   32.92    9.76
   3   5  -8  -10.88   18.22
  -3  -5  -8   22.19   12.28
   3   5  -8   21.59    7.51
   3  -5   8   30.03    5.48
   3  -5  -8   26.03   25.98
  -3  -5   8   32.25    7.36
   3   5   8   49.06    9.52
   3   5   8   22.34    4.37
  -3  -5   8   -8.75   20.04
  -3  -5   8   22.47    8.07
  -5   5   8   14.23    7.54
   5   5  -8    4.64   32.55
  -5  -5   8   12.01    7.71
   5   5   8   19.25    4.51
   5  -5  -8   15.16   32.85
   5   5   8   16.26    6.16
   5  -5  -8  -41.68   27.38
  -5  -5   8   11.91   28.74
  -5  -5   8   13.92    8.75
   7   5  -8   17.93   45.49
  -7   5   8    4.97    8.04
   7  -5   8    4.94    2.86
  -7  -5   8   31.09   49.72
   7   5   8    0.94    4.25
   7   5   8    8.97    4.85
   7  -5  -8   15.70   45.72
   7  -5  -8  -27.86   34.49
  -7  -5   8    0.03    7.13
   9   5  -8   19.28   62.10
  -9   5   8    2.61    9.52
   9  -5   8    7.78    4.31
  -9  -5   8   10.88   10.00
   9  -5  -8  -22.15   56.37
  -9  -5   8  -22.68   59.58
   9  -5  -8   32.87   59.10
   0   6  -8  528.17   26.12
   0  -6  -8  572.08   41.80
   0  -6   8  416.84   40.05
   0  -6   8  540.99   26.10
   0  -6  -8  473.37   45.16
   0   6   8  505.95   27.64
   0   6  -8  545.08   41.89
   0   6   8  507.48   23.53
  -2  -6  -8  479.07   36.79
  -2  -6  -8  553.08   41.25
   2  -6   8  493.38   23.59
   2   6  -8  505.80   27.61
  -2   6   8  494.79   24.84
  -2   6   8  518.08   29.15
   2   6  -8  495.43   48.83
  -2  -6   8  543.62   53.90
  -2   6  -8  512.30   31.19
   2   6   8  530.16   26.96
  -2  -6   8  517.95   27.62
   2  -6  -8  566.65   55.90
   2   6   8  540.67   22.47
   2  -6  -8  479.85   45.56
  -4  -6  -8  158.38   19.16
   4   6  -8  137.40   40.53
   4   6  -8  175.59   16.14
  -4   6   8  182.21   14.28
  -4  -6  -8  163.54   18.65
  -4   6   8  166.84   17.19
  -4  -6   8  194.41   16.96
   4  -6  -8  162.80   44.22
  -4  -6   8  100.21   37.70
   4   6   8  183.65   10.09
  -4  -6   8  161.05   13.81
   4  -6  -8   94.69   30.70
  -6   6   8  181.50   19.22
   6   6  -8  287.93   56.32
   6  -6  -8  214.01   53.41
   6  -6  -8  141.68   41.93
  -6  -6   8  168.32   49.00
  -6  -6   8  192.28   19.10
   6   6   8  181.17   11.78
  -8   6   8  106.80   18.11
   8   6  -8  108.57   55.41
   8  -6   8   84.15    7.55
   8  -6  -8  188.51   62.99
   8  -6  -8   26.65   43.41
   8   6   8  108.97    9.79
  -8  -6   8   90.69   17.19
  -1   7   8   87.25    8.87
   1  -7   8   68.77    8.93
   1  -7   8   97.06   21.27
  -1   7   8   68.14   10.90
   1   7  -8   74.42   11.24
  -1  -7  -8   72.54   18.90
  -1  -7  -8   72.15   23.71
   1   7  -8   75.54   22.64
   1   7   8   86.25    8.10
  -1  -7   8   83.22   11.51
  -1  -7   8   75.53   25.57
   1  -7  -8   82.22   27.57
  -1   7  -8   81.36    9.32
   1  -7  -8   64.55   22.31
   1   7   8   88.88   13.30
  -1   7  -8   55.98   17.47
  -3  -7  -8   20.56   15.98
   3   7  -8   47.55    9.42
  -3  -7  -8   24.45   16.17
  -3   7   8   29.38    9.37
   3  -7   8   48.03    6.55
  -3   7   8   53.50    8.90
   3   7  -8   37.25   27.23
   3   7   8   42.88    6.19
   3  -7  -8   54.34   32.34
  -3  -7   8  -11.49   20.29
  -3  -7   8   31.73    8.60
  -5  -7  -8   20.54   12.02
   5   7  -8    7.78   29.86
   5  -7   8   17.23    3.89
  -5   7   8   16.83    9.06
  -5  -7   8   38.21   34.80
   5  -7  -8   24.26   38.01
   5  -7  -8  -17.04   24.72
   5   7   8   16.01    5.24
  -5  -7   8   24.53    8.90
   7  -7   8    7.10    3.52
  -7   7   8    2.89    8.04
   7   7  -8    9.78   42.64
  -7  -7   8    8.95    9.08
   7   7   8   12.13    6.24
   7   7   8    5.49    5.43
   7  -7  -8  -47.46   43.00
   7  -7  -8   89.04   42.38
   9   7  -8   53.62   67.40
   9  -7   8    5.76    4.70
  -9   7   8    6.38   10.46
   9  -7  -8   95.17   58.05
  -9  -7   8   65.07   64.42
   9  -7  -8   -5.20   60.69
   9   7   8   23.84    6.23
  -9  -7   8   15.38    9.53
   0  -8   8  310.97   36.66
   0   8  -8  336.87   19.99
   0  -8  -8  270.64   41.17
   0  -8   8  323.35   19.36
   0   8   8  364.84   18.36
   0   8  -8  453.43   39.06
   0  -8  -8  405.68   36.08
   0   8   8  311.64   21.29
   2   8  -8  381.20   23.51
  -2  -8  -8  438.04   37.43
   2  -8   8  409.75   19.66
   2  -8   8  376.93   32.35
   2   8  -8  419.50   46.43
  -2   8   8  342.23   20.50
  -2   8   8  341.58   24.11
  -2  -8  -8  332.20   38.20
  -2  -8   8  404.11   48.51
  -2  -8   8  414.75   23.78
   2   8   8  414.46   23.64
   2  -8  -8  423.78   43.85
  -2   8  -8  406.80   20.04
   2  -8  -8  436.59   49.68
  -2   8  -8  389.90   30.37
   2   8   8  394.95   18.91
   4   8  -8  206.78   17.71
   4   8  -8  222.04   46.57
  -4   8   8  186.10   14.88
  -4  -8  -8  206.69   27.80
  -4   8   8  193.60   18.19
  -4  -8   8  185.17   17.12
   4  -8  -8  210.94   42.74
   4   8   8  172.99   11.40
   4  -8  -8  112.11   43.44
  -4  -8   8  131.55   40.68
  -4  -8   8  181.86   14.05
  -6  -8  -8  137.51   20.52
  -6   8   8  165.69   19.03
   6  -8   8  154.96    9.48
   6   8  -8  202.43   52.21
   6  -8  -8  180.23   55.47
  -6  -8   8  188.73   18.96
   6   8   8  196.71   12.83
   6  -8  -8  135.74   43.76
   8  -8   8   78.02    7.78
  -8   8   8   97.11   17.95
   8   8  -8   14.10   52.72
  -8  -8   8   64.96   13.08
   8   8   8  122.59   11.31
   8  -8  -8   54.84   63.66
   8  -8  -8    0.08   40.90
  -8  -8   8   77.40   57.48
   1   9  -8   39.58   22.44
   1   9  -8   51.16    9.53
  -1  -9  -8   26.58   22.95
   1  -9   8   46.28    7.88
  -1   9   8   53.05    8.57
   1  -9   8   21.97   17.03
  -1   9   8   24.42    8.76
  -1  -9  -8   25.82   18.23
  -1  -9   8   42.04    8.47
  -1   9  -8   31.87   17.38
   1   9   8   30.60    6.39
   1   9   8   32.19    8.92
   1  -9  -8   12.71   24.53
  -1   9  -8   51.44    8.41
   1  -9  -8   28.06   18.64
  -1  -9   8    3.96   24.19
  -3   9   8   26.03    9.59
   3  -9   8   19.96   11.97
  -3   9   8   27.38    7.53
   3   9  -8    9.98   24.81
   3  -9   8   21.03    4.92
  -3  -9  -8    6.17   17.90
   3   9  -8   19.59    8.13
   3  -9  -8   10.98    5.73
   3  -9  -8   30.48   24.62
  -3  -9   8  -12.51   23.93
  -3  -9   8   21.31    8.34
   3   9   8   25.96    5.79
   3  -9  -8    4.37   29.36
  -3   9  -8    7.71   10.16
   5  -9   8   36.13    5.70
   5   9  -8   76.86   36.44
  -5   9   8   23.48    9.76
  -5  -9  -8   36.50   19.52
   5  -9  -8   59.93   32.95
   5  -9  -8   84.22   40.79
   5   9   8   36.29    6.88
   5   9   8   15.89   16.67
   5  -9  -8   50.87    9.47
  -5  -9   8   32.26    9.83
  -5  -9   8   95.30   40.19
   7  -9   8   23.94    5.11
  -7   9   8   14.43    9.60
  -7  -9  -8   12.19   19.05
   7   9  -8   21.27   45.23
   7  -9  -8   39.06   40.10
  -7  -9   8   31.42   11.53
   7   9   8   11.72    6.91
   7  -9  -8   17.07   47.73
   7  -9  -8    6.50    7.69
   7   9   8   12.57    7.07
   7   9   8   23.36   15.91
   9  -9   8   15.24    5.56
   0  10   8  204.35   13.63
   0 -10  -8  124.23   35.79
   0 -10  -8  216.97   32.79
   0 -10   8  196.61   14.60
   0  10  -8  170.02   30.45
   0  10   8  201.92   17.09
   0  10  -8  194.34   15.12
  -2 -10  -8  277.50   37.13
   2 -10   8  261.22   15.32
   2  10  -8  252.95   42.18
   2 -10   8  243.87   30.48
   2  10  -8  276.84   19.63
  -2  10   8  290.71   17.56
  -2  10   8  289.33   21.47
  -2 -10   8  265.34   18.89
   2 -10  -8  259.01   42.90
  -2  10  -8  260.40   15.95
   2 -10  -8  317.58   52.11
  -2 -10   8  319.15   49.99
  -2  10  -8  250.47   28.39
   2  10   8  286.52   15.71
   2 -10  -8  281.23   15.76
   4 -10   8  155.84   10.30
   4  10  -8   85.82   37.03
  -4  10   8  149.42   17.16
  -4 -10  -8  122.39   29.28
   4 -10  -8  119.66   43.19
   4 -10  -8  162.68   13.56
  -4 -10   8   95.87   37.33
  -4 -10   8  172.35   16.37
   4  10   8  158.85   11.63
   4  10   8  104.70   23.98
   4 -10  -8  175.76   39.06
   6 -10   8  153.06   10.28
  -6  10   8  149.42   19.83
  -6 -10  -8  144.14   28.20
   6  10  -8  275.88   58.06
   6 -10  -8  165.03   15.78
   6  10   8  146.01   13.28
   6 -10  -8  282.95   61.97
   6  10   8  131.64   25.16
   6 -10  -8  125.23   43.60
  -6 -10   8  168.56   18.60
   8 -10   8   84.93    8.59
  -8  10   8   69.75   15.57
   8  10  -8  128.86   60.36
  -8 -10  -8   74.59   26.37
  -8 -10   8  102.49   18.33
   8 -10  -8   86.47   14.76
   8  10   8   34.57   22.15
   8  10   8   92.43   12.24
  -8 -10   8   24.31   60.36
   8 -10  -8  100.08   63.18
  -1  11   8   29.52   10.00
   1 -11   8   41.10    7.95
   1 -11   8   27.46   19.60
  -1  11   8   40.90    8.00
   1  11  -8   27.95    8.05
   1  11  -8   17.83   22.50
  -1 -11  -8   20.66   21.12
   1 -11  -8   18.68   19.29
   1 -11  -8   31.28    6.03
  -1  11  -8   27.47   20.12
   1  11   8   35.12    7.37
   1 -11  -8   33.00   27.12
  -1 -11   8   32.38    8.57
  -1  11  -8   33.13    7.89
  -3  11   8   19.41    9.54
   3 -11   8   27.69   16.46
   3 -11   8   14.01    5.40
  -3 -11  -8   22.87   21.33
   3  11  -8    6.62   24.52
  -3  11   8   15.60    6.94
   3  11  -8    6.49    6.67
   3 -11  -8   -1.02   28.95
  -3 -11   8   21.80    8.03
  -3  11  -8   14.12   14.12
   3 -11  -8   25.97    7.03
   3  11   8   49.42   23.44
   3  11   8   20.79    6.26
  -3 -11   8   -3.17   24.53
   3 -11  -8   50.29   26.29
  -3  11  -8   20.12    5.49
   5  11  -8    4.34   32.21
   5 -11   8   22.94    5.75
  -5  11   8   11.98    8.47
  -5 -11  -8   36.62   22.86
   5  11   8   15.00    6.54
   5 -11  -8  -28.79   39.87
  -5 -11   8   24.66    9.46
   5 -11  -8   32.85    9.03
   5  11   8    1.82   20.35
   5 -11  -8   60.33   32.37
  -7 -11  -8   17.39   27.74
  -7  11   8   17.04    9.96
   7 -11   8   22.41    5.66
   7  11  -8   24.58   47.44
   7 -11  -8    4.07   38.62
   7  11   8   38.41   24.54
  -7 -11   8  -36.97   48.31
   7 -11  -8   19.29    9.07
  -7 -11   8   27.25   11.32
   7  11   8   13.61    7.51
   7 -11  -8   66.88   54.29
   7  11   8   29.47    8.82
   0  12  -8  232.61   36.44
   0  12  -8  243.37   17.43
   0  12   8  246.38   15.71
   0 -12   8  242.11   16.68
   0 -12  -8  243.02   37.25
   2 -12   8  184.59   12.82
   2 -12   8  161.76   29.44
  -2  12   8  213.14   15.26
   2 -12   8  217.01   14.17
  -2 -12  -8  154.87   32.39
   2  12  -8  198.80   17.32
   2  12  -8  252.81   42.08
  -2  12   8  200.68   18.50
  -2 -12   8  204.90   16.70
  -2  12  -8  217.34   14.10
  -2  12  -8  182.47   27.91
   2  12   8  196.70   13.70
   2 -12  -8  170.74   43.28
   2  12   8  246.58   40.28
   2 -12  -8  189.17   13.69
   4  12  -8   33.65   33.49
  -4  12   8   84.18   14.65
   4 -12   8   58.90   17.85
  -4 -12  -8  104.08   30.37
   4 -12   8  105.73    9.71
   4  12   8  120.28   11.25
   4 -12  -8  121.49   13.46
   4 -12  -8  101.87   45.95
   4  12   8   98.40   27.87
   4 -12  -8  104.89   33.13
  -4 -12   8  129.27   15.82
  -4  12  -8   79.49   18.17
  -6 -12  -8   87.56   32.42
  -6  12   8   86.00   14.83
   6  12  -8   80.83   47.32
   6 -12   8  113.29    9.96
   6  12   8  126.38   12.71
   6  12   8   27.67   26.92
  -6 -12   8   49.08   48.45
   6 -12  -8   18.35   38.94
   6 -12  -8  130.41   15.39
  -6 -12   8  125.88   17.60
   6 -12  -8   59.15   52.37
  -8 -12  -8   72.92   36.42
  -8  12   8   43.64   13.38
   8  12  -8   79.74   63.33
   8 -12   8   41.46    7.49
   8 -12  -8  -26.80   48.04
  -8 -12   8   92.53   64.99
   8 -12  -8    7.77   71.05
   8  12   8   67.23   31.13
  -8 -12   8   58.60   15.22
   8 -12  -8   32.93   11.29
   8  12   8   56.64   10.17
  -1 -13  -8   31.13   24.47
   1  13  -8   46.87   10.70
   1 -13   8   40.79    7.91
   1  13  -8   49.05   26.29
  -1  13   8   41.88    8.44
  -1  13   8   40.15   10.40
   1  13   8   77.64   31.47
  -1  13  -8   52.75    9.55
  -1  13  -8   44.18   21.40
   1 -13  -8   33.03   24.42
  -1 -13   8   35.50    8.73
   1 -13  -8   44.74    7.66
   1  13   8   50.44    8.58
   3 -13   8   10.20    5.83
  -3 -13  -8    0.11   24.67
   3  13  -8   17.05   10.02
   3 -13   8   16.09   18.66
   3  13  -8   27.95   31.70
  -3  13   8    7.76    8.49
   3 -13  -8  114.29   44.68
   3  13   8   18.33   23.60
   3 -13  -8    8.59    6.34
   3 -13  -8   53.09   26.50
   3  13   8    6.70    5.85
  -3  13  -8   22.54   16.21
  -3 -13   8   19.11    8.19
  -3  13  -8   21.50    5.59
  -5 -13  -8   19.23   30.45
   5  13  -8  -55.66   34.07
   5 -13   8  -17.86   14.37
   5 -13   8   13.41    5.82
  -5  13   8   11.80    8.06
   5 -13  -8   17.94   34.32
   5 -13  -8   13.68    7.80
   5  13   8  -39.86   23.94
  -5 -13   8   16.93   35.62
   5 -13  -8    6.93   43.12
   5  13   8   13.77    7.41
  -5 -13   8   21.42    9.88
  -7 -13  -8   17.32   33.09
  -7  13   8   14.46   10.50
   7 -13   8    2.53    5.20
   7  13  -8  -50.98   55.12
  -7 -13   8   17.30   10.64
   7  13   8  -12.07   29.71
   7 -13  -8   11.91   40.86
   7 -13  -8    8.52    8.57
   7  13   8    5.45    6.23
   7 -13  -8   17.11   55.54
  -7 -13   8   74.40   53.50
   7  13   8   10.84    8.08
   0  14  -8  162.19   15.10
   0 -14  -8  156.87   11.09
   0  14  -8  170.40   34.28
   0  14   8  143.55   13.02
   0 -14  -8  127.21   32.55
   0 -14   8  177.02   14.47
   0  14   8  128.75   39.00
   2 -14   8  155.77   33.07
   2  14  -8  166.17   16.42
   2  14  -8  111.16   38.08
   2 -14   8  194.12   14.30
  -2 -14  -8  202.61   39.49
  -2  14   8  161.62   17.82
  -2  14  -8  136.94   27.10
   2 -14  -8   58.77   40.36
   2 -14  -8  180.29   14.08
   2  14   8  178.95   13.66
   2  14   8  128.05   37.17
   2 -14  -8  232.33   40.04
  -2 -14   8  165.83   16.09
  -2  14  -8  185.89   13.64
   4 -14   8   78.75   24.86
  -4 -14  -8   25.86   30.78
   4  14  -8  116.49   42.62
  -4  14   8   63.47   14.28
   4 -14   8  102.62   11.14
   4 -14  -8   72.57   33.27
   4 -14  -8   83.81   12.31
   4  14   8   78.77   11.40
  -4  14  -8   65.97   23.15
   4 -14  -8   10.24   44.22
  -4 -14   8   74.22   13.36
  -4 -14   8   34.40   41.90
   4  14   8   89.13   32.38
   6  14  -8   29.72   49.87
   6 -14   8   67.32    9.45
  -6  14   8   65.82   13.78
  -6 -14  -8   46.30   37.38
   6 -14   8   41.44   18.18
   6 -14   8   44.57   17.77
   6  14   8   42.89   33.36
  -6 -14   8   52.94   12.63
   6  14   8   87.10   12.73
   6 -14  -8   12.30   50.52
  -6 -14   8  103.54   51.11
   6 -14  -8   67.31   12.97
   6 -14  -8   52.20   37.81
   1 -15   8   58.00   10.15
   1 -15   8   49.07    9.11
  -1 -15  -8   69.93   29.31
  -1 -15  -8   39.63    6.06
   1  15  -8   33.48    9.75
   1  15  -8   37.44   28.04
  -1 -15   8   40.58    9.74
  -1  15  -8   27.15   22.60
   1  15   8   50.60    9.33
  -1  15  -8   44.22    9.63
   1 -15  -8   35.98    8.16
  -1 -15   8   30.58   30.97
   1  15   8   28.63   30.23
  -3 -15  -8   21.08   30.70
   3 -15   8   15.82    7.03
  -3  15   8   23.41   10.23
   3 -15   8   -1.33   23.76
   3  15  -8   11.62   30.86
  -3  15  -8   23.32   21.24
  -3  15  -8   31.54    6.68
   3 -15  -8  -11.82   26.02
   3 -15  -8   36.68    8.79
   3  15   8   36.64    8.67
   3 -15  -8  -41.31   41.01
  -3 -15   8  -14.68   34.04
   3  15   8   34.09   29.44
  -3 -15   8   31.52   10.00
  -5 -15  -8   45.41   36.50
   5  15  -8  -47.36   40.39
  -5  15   8   10.02   10.23
   5 -15   8   -2.50   22.64
   5 -15   8    4.83    5.67
   5  15   8    2.19    6.80
   5 -15  -8   -1.90    7.03
  -5 -15   8   21.57   10.02
  -5  15  -8  -23.44   20.07
   5 -15  -8   10.10   52.15
   5  15   8   -9.85   30.05
  -5 -15   8  -28.05   40.80
   5 -15  -8   -1.30   31.94
   7 -15   8   -2.60    5.27
  -7 -15  -8    4.19   39.83
   7  15  -8   15.10   57.19
  -7  15   8    3.39    9.80
   7 -15  -8   64.65   52.13
   7 -15  -8    7.02    8.77
  -7 -15   8    6.03    9.53
   7  15   8  -52.11   34.56
  -7 -15   8    7.27   59.69
   7 -15  -8  -45.76   63.26
   0 -16   8  163.06   14.55
   0 -16  -8  163.19   12.30
   0 -16   8  159.02   15.19
   0 -16  -8  170.77   37.41
   0  16  -8  149.66   15.44
   0  16   8  151.08   44.37
   0 -16   8   89.58   34.82
   0  16  -8   86.63   33.35
  -2  16   8   77.94   16.30
   2 -16   8  121.14   13.51
   2 -16   8   98.87   32.44
  -2 -16  -8  104.74   35.40
   2  16  -8  176.96   25.17
   2  16  -8   46.42   33.70
  -2  16  -8  127.49   30.76
  -2 -16   8  122.02   15.68
   2  16   8  130.83   12.88
   2  16   8  157.04   39.73
   2 -16  -8  124.87   13.89
  -2  16  -8  124.15   12.23
   2 -16  -8   56.25   30.95
  -2 -16   8  113.81   41.60
  -4 -16  -8   83.29   41.62
   4 -16   8   55.38   27.12
   4 -16   8   86.62   11.06
  -4  16   8   54.66   13.88
   4  16  -8   70.65   42.36
  -4 -16   8   51.41   43.11
   4 -16  -8   33.21   50.17
  -4 -16   8   73.49   13.81
   4  16   8   68.13   35.11
   4 -16  -8   60.52   11.12
   4  16   8   77.69   10.56
  -4  16  -8   61.53   27.29
   4 -16  -8   -4.15   29.03
  -6 -16  -8   40.28   43.31
   6 -16   8   57.13   26.78
  -6  16   8   78.67   17.90
   6  16  -8  -10.64   56.26
   6 -16   8   10.71   27.98
   6 -16   8   48.13    9.01
   6 -16  -8   26.79   39.15
  -6 -16   8   82.27   51.79
   6 -16  -8   83.34   69.48
  -6 -16   8   62.98   14.10
   6 -16  -8   52.99   12.13
   6  16   8   60.91   39.11
  -1 -17  -8   31.40    6.75
  -1 -17  -8   -0.66   30.67
   1  17  -8   24.08   31.09
   1 -17   8    1.66   30.25
   1  17  -8   19.30    9.31
   1 -17   8   24.19    8.88
  -1  17   8   -0.79   32.97
  -1 -17   8   43.06   10.59
  -1 -17   8   21.28    8.40
  -1  17  -8   29.24    8.66
  -1  17  -8   45.41   27.48
  -1 -17   8   30.08   34.29
   1 -17  -8   21.82    8.00
   1  17   8   51.53   38.22
   3 -17   8    8.61    7.36
   3  17  -8   43.38   40.48
  -3 -17  -8   47.79   36.50
   3 -17   8   -8.72   28.49
  -3  17   8   11.67    9.73
  -3  17  -8   22.37    6.52
   3 -17  -8  -13.12   30.51
  -3 -17   8    6.46    8.75
   3 -17  -8   33.58    9.52
  -3 -17   8   15.84    8.69
   3  17   8   12.90   33.88
  -3 -17   8  -20.86   36.74
  -3  17  -8   -7.97   22.43
   3 -17  -8   17.57   46.00
   5 -17   8   24.89   29.04
  -5 -17  -8  -26.73   40.18
   5  17  -8   30.04   52.63
  -5  17   8    0.37    7.26
   5 -17   8    7.00    6.23
  -5 -17   8   12.64   45.82
   5  17   8    6.86   39.37
   5 -17  -8   66.16   56.40
  -5  17  -8   23.13   26.77
   5 -17  -8   24.50   42.12
   5 -17  -8   17.01    9.42
  -5 -17   8   16.49   10.55
   0 -18  -8   -6.24   30.42
   0  18  -8   87.30   13.32
   0  18  -8   11.98   31.08
   0  18   8   26.05   40.08
   0 -18  -8   85.73   10.83
   0 -18   8   33.05   35.79
   0 -18   8   50.90   11.39
  -2  18   8  102.68   18.51
  -2 -18  -8   78.66    8.23
   2 -18   8   96.66   36.78
   2  18  -8   91.75   41.00
   2 -18   8   74.89   11.86
  -2 -18  -8   79.06   38.57
  -2 -18   8   76.98   42.92
  -2 -18   8   72.79   13.67
   2  18   8  102.08   41.55
   2 -18  -8   38.51   32.36
  -2 -18   8   92.78   14.11
  -2  18  -8   52.48   27.80
  -2  18  -8   98.08   12.91
   2 -18  -8   81.87   12.02
   4 -18   8   44.19   31.77
   4  18  -8   42.10   46.97
   4 -18   8   45.32    9.22
  -4 -18  -8  -12.72   39.21
  -4  18   8   66.44   15.98
  -4 -18   8   42.03   12.43
   4 -18  -8  -10.72   32.50
   4 -18  -8  -12.84   58.24
   4 -18  -8   35.92   10.38
  -4  18  -8   45.22   29.61
   4  18   8  108.35   43.22
  -4 -18   8    8.17   46.24
  -4 -18   8   47.61   12.82
   6  18  -8    9.78   56.48
   6 -18   8   18.88    7.80
  -6  18   8   25.76   13.60
  -6 -18  -8   75.09   47.82
  -6 -18   8    3.79   60.23
   6  18   8   32.43   46.19
  -6 -18   8   16.19   10.30
   6 -18  -8    3.58   42.73
   6 -18  -8   32.45   11.22
   6 -18  -8   56.72   75.95
  -6 -18   8   19.99   11.67
  -1 -19  -8    7.61   33.89
   1 -19   8   10.95   35.08
  -1 -19  -8    3.36    5.70
  -1  19   8  -12.58   37.56
   1  19  -8    6.01   35.49
   1 -19   8   10.59    8.36
  -1 -19   8   -3.60    7.76
  -1 -19   8   -3.10   38.10
  -1  19  -8   32.93   31.35
   1 -19  -8   -1.49   32.14
  -1  19  -8    9.70    7.31
   1  19   8   23.94   37.57
   1 -19  -8    4.84    7.09
   3  19  -8   -0.91   37.57
   3 -19   8   -0.77    6.73
   3 -19   8   11.97   34.82
  -3 -19  -8   15.21   39.28
  -3  19   8    3.68    9.45
  -3  19  -8   13.31    5.78
  -3  19  -8  -37.04   26.11
  -3 -19   8   14.86    9.72
   3 -19  -8  -43.47   36.04
  -3 -19   8   16.63    9.38
  -3 -19   8   49.55   47.02
   3 -19  -8   11.99    9.12
   3  19   8    3.28   39.36
  -5  19   8    6.06    9.26
   5  19  -8   11.17   50.92
   5 -19   8    2.49    6.41
  -5 -19  -8  -80.13   43.84
   5  19   8   34.50   46.03
  -5 -19   8   20.76   12.03
   5 -19  -8  -11.88   45.97
  -5 -19   8    2.43    8.43
   5 -19  -8    3.90    8.84
  -5 -19   8  -43.05   54.89
   5 -19  -8   -1.71   60.27
   0 -20   8   17.50   41.15
   0 -20   8   32.82   10.91
   0  20   8  -32.21   38.69
   0  20  -8   48.32   10.18
   0 -20  -8   37.69    8.82
   0  20  -8    9.65   34.81
   2 -20   8   34.38   36.38
  -2 -20  -8  -48.71   38.66
   2  20  -8   15.62   41.76
  -2 -20  -8   30.88    7.02
   2 -20   8   18.79    9.00
  -2  20   8   -9.64   46.02
  -2 -20   8   81.01   49.48
   2 -20  -8    0.48   37.35
  -2  20  -8   32.52   30.55
  -2 -20   8   42.14   11.79
   2 -20  -8   29.94    9.94
  -2  20  -8   57.50   10.06
   2  20   8   50.61   45.59
   4  20  -8   15.88   45.74
  -4  20   8   13.00    8.33
  -4 -20  -8  -14.63   45.35
   4 -20   8   32.92    9.03
   4 -20  -8   17.58   40.69
  -4 -20   8   22.78   10.85
   4 -20  -8   12.78   65.87
  -4 -20   8   30.09   12.17
  -4 -20   8   58.65   58.19
   4 -20  -8   23.36    9.91
   4  20   8   14.40   47.25
   1  21  -8   37.61   41.35
  -1 -21  -8   -0.98    6.35
   1 -21   8   -0.54    7.61
  -1 -21  -8  -33.49   40.62
   1 -21   8   21.08   41.50
  -1  21   8   25.53   55.47
  -1 -21   8    4.81    8.71
   1 -21  -8    4.82    7.19
   1  21   8  -13.52   40.22
   1 -21  -8  -16.67   40.05
  -1 -21   8   49.29   45.81
  -1  21  -8  -22.84   30.11
  -1  21  -8   -1.31    6.56
  -3 -21  -8    3.86   47.37
  -3 -21  -8   -2.38    1.50
   3  21  -8   47.84   47.90
  -3  21   8   -1.08    8.90
   3 -21   8   20.77    9.09
   3 -21  -8   -2.75    7.49
   3 -21  -8  -21.83   44.17
  -3  21  -8   -2.44    1.87
   3  21   8   -8.15   49.15
  -3 -21   8   13.67   52.81
  -3 -21   8    8.75   10.90
   0 -22   8    0.85   72.04
   0 -22   8   13.61    9.58
   0 -22  -8   26.13   43.42
   0  22   8   40.08   53.23
   0 -22  -8    7.34    7.94
   0  22  -8  -27.29   37.47
  -2 -22  -8   30.12    7.65
  -2 -22  -8  -51.11   44.26
   2 -22   8   28.14   10.41
  -2  22   8   34.96   61.82
   2  22  -8   75.52   52.20
   2  22   8   26.20   52.58
  -2 -22   8   58.77   50.84
   2 -22  -8   18.74    9.80
  -2 -22   8   22.23   11.26
   2 -22  -8   66.03   41.42
  -2  22  -8   48.62    9.66
  -1 -23  -8    8.53    8.06
   1 -23   8   -8.60    7.63
  -1  23   8  -27.20   61.11
  -1 -23   8   15.66   10.71
   1 -23  -8  -11.91   42.81
   1 -23  -8   13.41    8.99
   1  23   8  -26.67   55.33
   0   0   9   21.20    5.42
   0   0   9   13.56    6.46
   0   0  -9    8.47   15.51
   0   0  -9   23.04   19.07
  -2   0  -9   14.75    8.64
   2   0   9   20.09    6.50
  -2   0   9   28.91    9.35
   2   0   9   22.97    4.62
   2   0  -9    7.82   23.16
   2   0  -9    9.79   20.97
  -2   0  -9   32.95   11.16
  -2   0   9   30.27    7.04
  -4   0   9   41.25   10.82
   4   0  -9   58.63   36.14
   4   0   9   54.21    8.31
  -4   0   9   65.97   10.33
   6   0  -9   10.15   33.36
   6   0  -9  -10.64   42.24
  -6   0   9    4.29    7.69
   8   0  -9  -69.65   45.56
   8   0  -9  -17.32   55.26
  -8   0   9   16.12   11.47
  -1  -1  -9  328.81   32.59
   1  -1   9  338.54   20.30
  -1   1   9  345.48   18.03
   1  -1   9  348.17   16.25
  -1  -1  -9  314.62   28.58
  -1   1   9  323.07   21.61
   1   1  -9  394.17   41.93
   1   1  -9  344.06   39.90
  -1  -1   9  357.69   18.20
  -1  -1   9  313.32   21.24
  -1   1  -9  269.14   27.78
  -1   1  -9  264.43   29.20
   1  -1  -9  343.30   42.29
   1   1   9  350.41   20.87
   1  -1  -9  297.65   37.39
   1   1   9  315.85   16.13
  -3   1   9  294.42   22.00
   3  -1   9  333.75   18.27
  -3   1   9  279.22   18.14
   3   1  -9  316.62   51.59
   3  -1   9  298.57   13.48
   3   1   9  306.08   13.97
  -3  -1   9  307.27   18.57
   3  -1  -9  289.76   47.29
   3  -1  -9  319.86   51.27
  -3  -1   9  316.33   22.49
   3   1   9  337.49   19.03
  -5   1   9  276.14   22.95
   5  -1   9  255.25   14.20
   5   1  -9  306.09   57.83
  -5  -1   9  276.81   22.67
   5   1   9  281.50   15.68
   5  -1  -9  313.99   57.64
   5  -1  -9  310.47   57.78
   7   1  -9   84.08   51.27
  -7   1   9   98.10   16.89
   7  -1  -9  -14.19   39.07
  -7  -1   9   88.82   17.32
   7  -1  -9  138.48   61.93
   0   2  -9   26.77   20.41
   0  -2   9   57.39    7.42
   0  -2  -9   35.04   17.33
   0   2   9   53.38   10.40
   0   2   9   59.49    8.02
   0  -2   9   71.51   11.63
   0  -2  -9   34.49   21.48
   0   2  -9   33.85   17.98
  -2   2   9   21.15    8.71
   2  -2   9   34.44    7.76
  -2  -2  -9    0.92   11.12
  -2   2   9   37.71    7.80
   2   2  -9   63.79   28.92
  -2  -2  -9   42.40   14.15
   2  -2  -9   11.47   22.88
   2   2   9   29.25    5.29
   2   2   9   26.37    7.42
  -2   2  -9   21.23    7.63
  -2  -2   9   44.40    7.94
  -2   2  -9   17.23    8.77
  -2  -2   9   25.91    8.37
   2  -2  -9   54.80   25.88
   4  -2   9   45.03    7.20
  -4   2   9   36.47    9.24
  -4   2   9   65.17   10.73
   4   2  -9   65.01   33.57
  -4  -2   9   58.55    9.88
   4  -2  -9   44.02   34.76
   4   2   9   49.64    4.92
   4   2   9   41.49    7.81
  -4  -2   9   48.53   11.45
   6   2  -9   42.97   47.13
  -6   2   9    2.58    7.90
  -6  -2   9    2.39    7.51
   6  -2  -9    4.99   38.77
   6  -2  -9   45.41   47.72
  -6  -2   9   13.39   44.71
   8   2  -9   38.07   55.78
  -8   2   9    8.19   10.29
   8  -2  -9  -12.42   47.96
   8  -2  -9   63.44   56.14
  -8  -2   9   19.64   12.01
  -1   3   9  390.30   24.18
   1   3  -9  330.99   41.84
  -1  -3  -9  368.56   36.66
  -1   3   9  367.44   19.78
   1  -3   9  367.91   21.39
  -1  -3  -9  394.97   32.42
  -1   3  -9  353.75   32.30
   1  -3  -9  388.62   44.45
  -1   3  -9  326.55   30.72
   1   3   9  404.23   23.07
   1  -3  -9  349.27   40.18
  -1  -3   9  368.15   22.85
  -1  -3   9  393.07   19.60
   1   3   9  398.50   18.42
  -3   3   9  203.61   15.66
   3  -3   9  236.56   14.34
  -3   3   9  223.50   19.24
   3   3  -9  233.11   43.45
   3   3  -9  242.87   18.71
  -3  -3   9  287.25   72.12
   3  -3  -9  226.80   46.63
  -3  -3   9  210.79   15.31
   3  -3  -9  257.16   43.31
  -3  -3   9  204.28   18.40
   3   3   9  245.21   16.35
   3   3   9  214.97   11.50
  -5   3   9  176.37   19.29
   5   3  -9  179.86   50.54
   5  -3  -9  152.33   46.05
  -5  -3   9  196.22   19.35
   5  -3  -9  162.81   48.78
   5   3   9  190.46   13.85
   5   3   9  204.18    9.83
  -7   3   9   78.20   15.72
   7   3  -9   82.90   54.22
   7  -3  -9   -6.65   44.02
   7   3   9   85.18    7.83
  -7  -3   9  101.22   16.54
   7   3   9   78.76    8.30
  -7  -3   9  129.81   56.27
   7  -3  -9   61.12   51.61
   0   4  -9   54.71   21.00
   0  -4   9   58.45   10.66
   0  -4  -9   56.95   24.14
   0   4   9   66.23   11.64
   0  -4  -9   50.32   19.92
   0   4   9   61.71    8.18
  -2   4   9   21.26    8.29
  -2  -4  -9   16.85   15.60
  -2   4   9   31.79    7.26
  -2  -4  -9   15.66   14.25
   2  -4   9   17.47    6.03
   2   4  -9   30.21   24.74
   2   4  -9   27.34    8.67
  -2   4  -9   45.72    9.64
  -2   4  -9   31.85   10.66
   2   4   9   27.13    5.34
  -2  -4   9   23.96    8.61
   2   4   9   25.02    8.09
  -2  -4   9   16.43    6.01
   2  -4  -9   -2.17   24.59
   2  -4  -9   27.55   21.56
   4  -4   9   30.65    5.57
  -4   4   9   23.25    8.86
   4   4  -9   22.18   29.81
   4   4   9   39.16    8.35
   4  -4  -9    8.45   31.31
   4   4   9   35.27    5.05
  -4  -4   9   28.99    7.86
  -4  -4   9   28.96    9.60
   4  -4  -9   18.22   29.92
  -6   4   9   -4.59    7.29
   6   4  -9   42.39   44.75
   6   4   9   -1.93    4.17
   6   4   9    1.14    3.94
  -6  -4   9   17.95    9.39
   6  -4  -9   -9.59   32.95
   6  -4  -9  -26.92   38.45
  -6  -4   9   33.44   40.49
   8   4  -9   45.17   58.47
  -8   4   9   12.54   11.36
   8  -4  -9   36.97   59.81
   8  -4  -9  -45.68   46.84
  -8  -4   9   17.11   58.34
  -8  -4   9   12.93    9.78
  -1  -5  -9  295.72   37.29
  -1   5   9  377.74   23.96
   1   5  -9  338.71   40.42
  -1  -5  -9  349.50   33.28
  -1   5   9  360.96   19.54
   1  -5   9  371.98   20.51
   1   5  -9  343.01   21.64
   1   5   9  379.98   22.88
   1  -5  -9  321.43   37.37
  -1   5  -9  314.83   31.62
   1   5   9  356.02   17.91
   1  -5  -9  363.52   50.88
  -1  -5   9  347.55   21.81
  -3   5   9  174.81   17.82
   3   5  -9  181.22   40.77
   3  -5   9  178.53   12.02
  -3  -5  -9  136.79   18.67
   3   5  -9  190.01   16.96
  -3  -5  -9  159.33   20.11
  -3   5   9  199.41   14.90
   3  -5  -9  110.99   34.98
   3   5   9  178.50   10.68
  -3  -5   9  188.84   14.15
   3  -5  -9  161.34   40.34
  -3  -5   9  204.24   17.38
   3   5   9  213.97   15.79
   5   5  -9  302.54   56.94
  -5   5   9  211.33   20.30
  -5  -5   9  214.90   19.97
   5   5   9  204.41   15.39
   5   5   9  190.44   11.14
  -5  -5   9  158.24   71.06
   5  -5  -9  142.04   46.52
   5  -5  -9  200.62   48.75
  -7   5   9   76.96   15.98
   7   5  -9  114.31   55.60
   7  -5  -9  -14.81   40.31
   7   5   9  102.28   10.58
  -7  -5   9  106.20   54.59
   7   5   9   80.92    9.12
   7   5   9   86.69    9.10
  -7  -5   9   75.31   15.95
   7  -5  -9   50.01   51.83
   0   6   9   44.39   10.34
   0  -6  -9   71.06   21.36
   0  -6  -9   33.51   23.14
   0   6  -9   56.25   10.13
   0  -6   9   47.42   23.48
   0  -6   9   47.34    9.19
   0   6   9   82.51    9.62
   0   6  -9   31.75   20.82
   2   6  -9   26.42    8.65
   2  -6   9    4.32    4.73
  -2  -6  -9   33.24   17.30
  -2  -6  -9   -2.54   17.06
   2   6  -9   29.78   25.31
  -2   6   9    1.73    6.58
  -2   6   9   16.58    6.78
   2  -6  -9   18.40   21.88
   2   6   9   22.38    5.26
  -2   6  -9   24.64   11.23
   2   6   9   18.60    7.81
  -2  -6   9   16.92    7.44
   2  -6  -9  -14.06   24.68
  -2  -6   9   18.63    6.53
  -2   6  -9    7.74   11.14
  -4   6   9   27.87   11.25
   4   6  -9   57.03   33.19
   4   6   9   30.97    5.55
   4  -6  -9   43.23   35.17
   4   6   9   31.51    8.24
   4  -6  -9   19.71   25.74
  -4  -6   9   25.21    9.15
   6   6  -9   61.59   46.48
  -6   6   9   10.50    9.39
  -6  -6   9    3.31   39.17
  -6  -6   9    6.21    8.54
   6  -6  -9    3.11   33.82
   6   6   9    5.09    5.38
   6  -6  -9  -22.06   40.50
   6   6   9   10.34    5.28
  -8   6   9   -6.88    8.11
   8  -6   9   10.43    3.82
   8   6  -9   13.75   65.60
   8  -6  -9  -25.60   48.86
  -8  -6   9   -8.35   69.71
   8   6   9   13.72    5.84
   8  -6  -9  -36.64   59.11
  -8  -6   9    7.56    8.75
   8   6   9    9.85    5.79
  -1  -7  -9  299.25   32.90
   1  -7   9  295.07   34.51
  -1  -7  -9  256.12   39.44
   1   7  -9  327.90   20.84
  -1   7   9  323.55   22.46
  -1   7   9  295.45   17.92
   1   7  -9  329.22   43.18
   1  -7   9  284.83   18.16
   1  -7  -9  315.94   42.01
  -1   7  -9  254.31   30.25
   1   7   9  347.60   22.00
  -1  -7   9  324.04   20.76
   1   7   9  308.14   16.77
   1  -7  -9  310.23   48.41
   3   7  -9  201.87   42.09
   3   7  -9  192.73   17.68
  -3   7   9  181.13   17.84
  -3   7   9  217.25   15.28
  -3  -7  -9  184.69   27.22
   3  -7   9  178.25   12.03
  -3  -7  -9  147.49   25.73
   3  -7  -9  136.48   44.05
   3  -7  -9  186.32   40.14
   3   7   9  191.10   16.10
  -3  -7   9  196.15   17.60
   3   7   9  185.89   11.57
  -3  -7   9  171.63   14.01
  -5   7   9  225.79   20.75
   5  -7   9  165.31    9.63
   5   7  -9  249.12   56.47
   5  -7  -9  113.53   43.32
   5   7   9  183.11   11.65
  -5  -7   9  188.91   54.23
   5   7   9  181.23   15.43
   5  -7  -9  156.93   51.61
  -5  -7   9  208.25   19.81
   7   7  -9  125.42   61.40
  -7   7   9   83.64   17.94
   7   7   9  101.71   12.67
  -7  -7   9   97.96   18.35
   7  -7  -9  -16.83   47.63
   7   7   9  103.06   11.18
   7  -7  -9   16.42   48.30
  -7  -7   9  105.79   53.79
   7   7   9  112.46   10.52
   0  -8  -9   66.95   23.41
   0  -8   9   30.87   38.83
   0   8   9   77.31   13.38
   0  -8   9   79.57   11.14
   0   8  -9   72.51   24.99
   0   8  -9   80.23   12.10
   0   8   9   86.78   10.28
   0  -8  -9   -4.91   24.52
  -2  -8  -9    2.27   19.48
  -2   8   9   24.55    7.51
   2  -8   9    7.42   15.84
  -2  -8  -9   36.96   21.35
   2  -8   9    7.69    4.93
   2   8  -9   20.73    8.37
   2   8  -9   11.19   27.22
  -2   8   9   12.10    8.45
   2  -8  -9  -25.11   21.06
  -2  -8   9   10.98    6.74
  -2   8  -9    8.99   13.36
   2   8   9   12.54    5.11
   2   8   9    5.90    6.17
   2  -8  -9    5.59   28.86
  -4   8   9   29.02   10.92
  -4  -8  -9   27.62   17.69
   4   8  -9   42.06   34.57
  -4  -8  -9   41.54   18.01
  -4  -8   9   56.89   39.16
   4  -8  -9   -8.47   30.07
   4  -8  -9  106.59   44.12
   4   8   9   17.83    5.60
  -4  -8   9   25.10    9.29
   4   8   9   18.03    8.00
  -6   8   9   11.04    8.84
   6  -8   9    8.88    3.85
   6   8  -9  -20.56   39.60
  -6  -8   9    2.21    7.51
   6  -8  -9   14.76   39.05
   6   8   9   17.91    6.59
  -6  -8   9   22.97   44.61
   6  -8  -9    9.30   45.25
  -8   8   9    4.99   10.38
   8   8  -9  -31.93   57.84
   8  -8   9   13.91    4.28
  -8  -8   9  -43.57   59.62
  -8  -8   9    8.47    9.95
   8  -8  -9   84.23   65.48
   8  -8  -9   38.06   51.38
   8   8   9    9.97    6.24
   1   9  -9  275.18   19.36
  -1  -9  -9  240.81   34.82
   1   9  -9  282.54   40.51
  -1  -9  -9  220.98   39.55
  -1   9   9  261.02   16.53
  -1   9   9  261.19   20.81
   1  -9   9  215.70   35.09
   1  -9   9  254.69   16.69
   1  -9  -9  250.86   46.27
  -1   9  -9  257.56   33.30
   1   9   9  229.39   19.50
  -1   9  -9  278.86   17.59
  -1  -9   9  278.52   19.11
   1   9   9  283.74   16.15
   1  -9  -9  247.68   37.32
   3   9  -9  189.16   44.13
  -3  -9  -9   54.53   22.98
  -3  -9  -9   94.99   26.14
  -3   9   9   81.81   13.87
   3  -9   9  109.29    9.10
  -3  -9   9   56.08   36.80
   3  -9  -9  126.50   42.73
   3   9   9  108.52   13.94
   3   9   9  122.81   10.01
  -3  -9   9  117.22   16.10
  -5   9   9  189.20   20.70
   5  -9   9  149.86   10.30
   5   9  -9  221.83   55.78
  -5  -9  -9  135.08   22.21
  -5  -9  -9  188.48   24.77
  -5  -9   9  172.78   18.57
  -5  -9   9  179.57   54.78
   5   9   9  168.38   12.32
   5  -9  -9  158.42   55.78
   7   9  -9   11.49   52.91
   7  -9   9   76.40    7.34
  -7   9   9   50.94   12.32
   7  -9  -9   10.86   54.42
   7   9   9   80.78   11.73
   7  -9  -9   -9.86   40.35
   7   9   9   88.79   11.44
  -7  -9   9   64.83   61.18
  -7  -9   9   63.41   12.70
   0 -10  -9   76.42   25.74
   0 -10  -9   56.80   30.46
   0  10  -9   61.61   10.94
   0  10   9   69.25    9.63
   0 -10   9   61.08   10.10
   0  10   9   62.20   13.36
   0  10  -9   57.64   23.36
   2  10  -9   14.03    7.28
   2 -10   9   13.20    5.79
   2  10  -9   35.77   28.20
  -2 -10  -9   42.75   23.53
  -2  10   9    7.10    8.15
  -2 -10  -9   11.31   24.52
  -2  10   9   17.64    6.92
   2 -10   9   -4.32   18.80
  -2 -10   9   26.31   27.35
  -2  10  -9    2.44   15.37
   2 -10  -9    2.57   28.07
  -2 -10   9   12.39    6.85
   2 -10  -9  -10.35   19.44
   2  10   9   18.33    8.57
  -2  10  -9    2.88    5.07
   2  10   9    7.40    5.19
  -4 -10  -9   30.22   22.76
  -4  10   9   15.39    9.39
   4  10  -9   40.66   37.21
   4 -10   9   20.15    5.54
  -4 -10   9   41.49   36.56
   4 -10  -9   29.75   31.29
   4 -10  -9   26.18   40.07
   4  10   9   29.49    6.61
  -4 -10   9   17.74    9.23
  -6  10   9   12.97   10.53
   6  10  -9   58.90   45.83
  -6 -10  -9   31.54   18.52
  -6 -10   9   20.29   10.24
   6 -10  -9  -40.14   35.48
  -6 -10   9   12.29   46.34
   6 -10  -9    5.65   56.35
   6  10   9   17.65    7.49
  -1  11   9  201.28   14.66
  -1 -11  -9  153.60   33.50
  -1 -11  -9  134.73   36.40
  -1  11   9  181.22   18.26
   1 -11   9  132.70   32.24
   1  11  -9  192.60   16.63
   1 -11   9  196.49   14.55
   1  11  -9  177.26   35.96
  -1  11  -9  177.00   14.64
   1 -11  -9  160.46   32.09
   1 -11  -9  166.33   44.47
  -1  11  -9  167.43   29.32
   1  11   9  196.75   13.92
  -1 -11   9  196.34   16.43
   1  11   9  180.38   17.56
  -3 -11  -9   51.61   28.31
   3 -11   9   97.03   10.49
  -3  11   9  102.06   17.16
   3  11  -9   86.24   36.98
   3 -11   9   97.01    8.74
   3 -11   9   70.76   18.99
   3  11   9   97.68   10.83
   3 -11  -9   22.15   40.89
  -3  11  -9   68.44   16.58
  -3 -11   9   31.95   34.99
  -3 -11   9  107.40   16.29
   5 -11   9  108.27    9.75
   5  11  -9   66.99   43.99
  -5 -11  -9   71.28   28.87
  -5 -11   9  124.16   17.28
   5 -11  -9    4.82   31.71
   5  11   9  121.62   11.88
   5 -11  -9   80.74   48.29
  -5 -11   9   38.29   46.50
   7 -11   9   55.92    7.42
  -7  11   9   36.41   11.80
   7  11  -9  212.34   65.75
  -7 -11  -9   16.79   22.24
   7  11   9   85.86   12.58
   7 -11  -9  159.18   73.01
  -7 -11   9  -35.99   63.62
   7 -11  -9   30.97   47.58
   7  11   9   79.99   11.28
  -7 -11   9   66.83   15.78
   0  12   9   48.61    8.70
   0  12  -9   40.12    9.50
   0 -12  -9   77.00   35.94
   0  12  -9   58.22   26.95
   0 -12  -9   38.12   25.29
   0  12   9   27.58    8.87
   0 -12   9   45.35    9.02
  -2  12   9   16.27    7.56
   2  12  -9   24.99   31.31
   2  12  -9    5.13    6.83
   2 -12   9   12.03    5.78
   2 -12   9  -18.11   20.44
  -2 -12  -9   13.63   25.67
   2 -12  -9   19.03   25.86
  -2 -12   9   20.24   32.72
   2 -12  -9   46.71   37.36
  -2  12  -9   10.33    6.14
  -2 -12   9   10.48    7.75
  -2  12  -9   12.26   17.91
   2  12   9    9.41    6.06
   4  12  -9   42.91   40.37
   4 -12   9   13.49    6.04
  -4 -12  -9   15.12   27.69
  -4  12   9   33.33   12.35
   4 -12  -9   13.89   27.89
   4 -12  -9    6.70    7.00
   4  12   9   13.06    6.46
   4  12   9   47.84   26.20
   4 -12  -9  -42.84   42.55
  -4 -12   9   30.09   38.68
  -4 -12   9   19.33    9.02
   6  12  -9    9.33   45.14
   6 -12   9   17.42    5.88
  -6  12   9   10.35   10.71
  -6 -12  -9   28.99   28.90
   6  12   9   12.20    7.53
  -6 -12   9   13.32   10.32
   6 -12  -9   42.79   46.64
  -6 -12   9   -8.84   45.71
   6  12   9   24.26   25.98
   6 -12  -9   53.50   54.74
   6 -12  -9    9.28    8.65
  -1  13   9  173.92   18.11
   1  13  -9  160.21   15.65
   1 -13   9  153.95   13.56
  -1 -13  -9  127.15   35.59
   1  13  -9  136.37   35.74
   1 -13   9   96.86   32.09
   1 -13  -9  125.70   38.15
  -1  13  -9  159.41   13.89
   1  13   9  161.65   13.14
   1 -13  -9  166.37   36.48
  -1 -13   9   45.30   33.02
  -1 -13   9  152.69   15.09
  -1  13  -9  161.13   32.98
   1  13   9  146.73   19.59
   3 -13   9   23.45   21.53
  -3 -13  -9   11.41   28.61
   3 -13   9   84.25   10.41
   3  13  -9   74.99   38.20
  -3  13   9   68.56   13.90
  -3 -13   9   38.16   40.89
  -3  13  -9   69.52   21.18
   3 -13  -9   38.61   41.60
   3  13   9   71.48    9.91
   3 -13  -9    5.99   31.16
   3 -13  -9   64.43    9.96
  -3 -13   9   85.20   14.20
   3  13   9   55.07   30.90
   5 -13   9  106.34   10.58
  -5 -13  -9  126.61   36.55
   5  13  -9  151.26   52.54
  -5  13   9   85.32   15.84
  -5 -13   9   93.14   55.40
   5  13   9   74.71   31.49
   5  13   9  101.90   12.76
   5 -13  -9   98.03   13.82
  -5 -13   9  112.94   17.36
   5 -13  -9   59.65   52.35
   7 -13   9   42.35    7.58
   7 -13  -9   39.16   11.40
   0  14  -9   43.31   28.41
   0  14  -9   69.09   11.37
   0 -14   9   48.79    9.50
   0 -14   9   47.57   31.99
   0 -14  -9    8.15   36.94
   0  14   9   39.69   10.73
   0 -14  -9   43.25   29.91
   2 -14   9   16.88   25.09
  -2 -14  -9  -10.40   29.17
  -2  14   9   13.43    8.38
   2  14  -9    8.21   33.27
   2 -14   9   17.31    7.71
   2 -14  -9    7.40   40.37
  -2 -14   9   11.72    7.45
  -2  14  -9   11.37    6.29
   2  14   9    4.01   31.27
   2  14   9    9.75    6.54
  -2  14  -9    3.37   19.62
   2 -14  -9   17.07    6.67
  -2 -14   9  -11.08   33.47
  -4  14   9   26.60   11.68
   4 -14   9   16.85   20.22
   4  14  -9   54.70   44.76
   4 -14   9   19.06    6.99
  -4 -14  -9   28.75   34.99
   4  14   9    2.17   31.73
  -4 -14   9   11.22    8.83
   4 -14  -9   -4.28   52.48
   4 -14  -9    6.90    7.24
  -4  14  -9   13.87   18.89
  -4 -14   9    9.61   41.27
   4 -14  -9   -7.37   33.81
   4  14   9    6.75    6.74
   6  14  -9   34.86   58.02
   6 -14   9   13.80    6.62
  -6  14   9    8.96   10.59
  -6 -14  -9   -0.13   36.89
   6  14   9    8.81    7.14
   6  14   9    2.97   33.55
  -6 -14   9    7.15    9.08
   6 -14  -9   -5.85   64.98
   6 -14  -9   15.10    9.06
   6 -14  -9  -24.14   40.31
  -6 -14   9   -3.85   52.49
   1 -15   9  123.12   35.78
   1  15  -9   83.43   35.30
   1 -15   9  136.19   14.63
   1  15  -9  143.07   15.57
  -1 -15  -9   66.56   35.37
  -1  15   9   87.17   16.67
   1 -15   9  122.63   12.68
   1 -15  -9  119.66   10.86
  -1 -15   9   73.34   36.25
   1 -15  -9   91.15   47.01
  -1  15  -9   71.99   29.35
  -1 -15   9  135.05   15.85
   1 -15  -9   24.84   31.77
  -1  15  -9  108.30   13.65
   3 -15   9    5.44   26.81
  -3 -15  -9   62.18   36.31
   3 -15   9   74.06   10.62
   3  15  -9  127.21   44.58
  -3  15   9   71.64   16.81
  -3  15  -9   79.49    8.22
   3 -15  -9  105.83   51.43
   3 -15  -9   64.62   10.71
   3  15   9   73.02   10.16
  -3 -15   9   14.80   40.60
   3 -15  -9   42.05   28.85
  -3 -15   9   68.45   13.10
   3  15   9   78.17   37.87
  -3  15  -9   76.85   24.18
   5 -15   9   69.69    9.93
   5  15  -9    7.67   52.38
   5 -15   9   42.92   18.92
  -5  15   9   72.86   17.04
  -5 -15  -9   40.22   39.79
  -5 -15   9   57.52   55.52
  -5 -15   9   70.35   14.46
   5 -15  -9    0.68   54.14
   5  15   9   62.88   37.44
   5 -15  -9  -24.16   37.80
   5 -15  -9   64.92   12.19
   0 -16  -9  -25.26   28.56
   0 -16  -9   38.97    6.51
   0  16  -9   32.11   31.21
   0 -16   9   30.44    9.89
   0  16  -9   23.05    8.94
   0 -16   9   32.16    8.83
   0 -16   9   31.27   36.15
   2 -16   9    2.02    6.79
  -2  16   9   14.98   10.02
   2  16  -9   65.03   37.14
   2 -16   9  -14.81   28.50
  -2 -16  -9   -5.66   32.10
  -2 -16   9   13.80    8.54
   2 -16  -9    6.35    6.49
  -2  16  -9    1.72    5.80
  -2  16  -9   -9.77   23.85
   2  16   9   17.30   34.35
  -2 -16   9    6.49   36.65
   2 -16  -9  -18.41   45.69
   4 -16   9   18.74   27.03
   4  16  -9  -40.05   44.78
  -4 -16  -9  -31.05   39.59
  -4  16   9    6.61    9.22
   4 -16   9   13.74    7.10
  -4 -16   9    2.83    8.06
   4 -16  -9  111.76   62.90
   4 -16  -9   11.04    8.13
   4  16   9  -30.25   36.02
   4 -16  -9   45.45   37.10
  -4 -16   9   16.75   49.76
  -4  16  -9   26.10   25.10
   1  17  -9    6.92   33.53
  -1 -17  -9   -6.84   34.02
   1 -17   9   51.95   36.83
  -1  17   9   62.97   13.37
   1 -17   9   66.14   11.39
  -1 -17   9   92.44   14.62
  -1  17  -9   71.49   11.45
   1  17   9   10.71   39.32
  -1  17  -9   52.29   30.23
   1 -17  -9   55.54    9.13
   1 -17  -9   41.80   32.95
  -1 -17   9   77.54   43.39
  -1 -17   9  105.94   14.97
   3 -17   9   39.54    8.96
   3  17  -9   30.86   40.84
   3 -17   9    5.78   30.74
  -3  17   9   23.54   12.05
  -3 -17  -9    4.52   37.89
  -3 -17   9   42.22   11.04
   3 -17  -9   -1.55   37.47
   3  17   9  -28.23   37.60
  -3  17  -9   12.45   27.53
  -3 -17   9   87.15   51.07
   3 -17  -9  -35.71   54.52
   3 -17  -9   37.89    9.89
  -5  17   9   30.83   13.13
  -5 -17  -9   84.06   52.24
   5 -17   9   40.27    9.05
   5  17  -9    3.72   51.73
  -5 -17   9  -20.42   57.45
   5  17   9  -12.64   44.35
   5 -17  -9   66.34   44.92
  -5 -17   9   37.02   12.36
   5 -17  -9    0.20   70.04
   5 -17  -9   38.66   11.31
  -5  17  -9   35.64   31.17
   0 -18  -9  -15.69   33.98
   0  18  -9    6.78    7.10
   0 -18   9   20.88    9.49
   0 -18  -9   11.44    5.92
   0  18  -9  -42.41   32.88
   0 -18   9   12.75   37.48
   0  18   9   -1.15   43.92
  -2 -18  -9   -8.65   36.85
   2  18  -9   20.43   40.76
  -2  18   9    0.36    8.80
   2 -18   9   -2.72    6.96
   2 -18   9   52.29   37.95
   2 -18  -9   16.86   50.37
  -2 -18   9    0.30   43.49
   2  18   9   47.67   44.24
  -2 -18   9   -4.71    6.83
  -2  18  -9   21.45   29.28
   2 -18  -9  -43.64   33.23
  -2  18  -9   20.72    7.02
  -2 -18   9    4.56    8.84
   2 -18  -9    1.46    6.67
   4 -18   9   20.19    7.83
  -4 -18  -9   16.63   47.46
  -4  18   9    8.24   10.37
   4  18  -9  -18.75   44.19
   4 -18  -9    4.92    7.82
   4 -18  -9   -5.52   39.27
   4  18   9   15.87   48.24
  -4 -18   9   -1.46    9.37
  -4 -18   9   17.68    9.77
   4 -18  -9   -6.49   65.22
  -4 -18   9  -20.93   52.00
  -1 -19  -9  -12.06   40.58
   1 -19   9   23.85    9.67
   1  19  -9   -4.39   39.62
  -1  19   9   55.15   16.24
  -1  19  -9   66.39   11.34
  -1  19  -9   55.91   31.85
  -1 -19   9   25.40   43.84
  -1 -19   9   57.97   13.03
  -1 -19   9   52.28   12.19
   1  19   9  -14.69   48.55
   1 -19  -9   36.08    9.21
  -3  19   9   28.54   13.56
   3  19  -9   15.17   54.74
  -3 -19  -9  -43.70   45.72
   3 -19   9   35.78   10.02
   3  19   9  -12.72   49.65
  -3 -19   9   35.36   12.07
   3 -19  -9  -64.82   62.10
  -3 -19   9   44.07   12.62
   3 -19  -9   -7.13   37.51
   3 -19  -9   47.10   10.55
  -3  19  -9    0.28    1.86
   0  20   9    5.52   52.95
   0 -20  -9    9.58    6.59
   0 -20   9    4.66    8.28
   0 -20  -9   -2.06   42.56
  -2 -20  -9  -46.68   41.65
   2 -20   9    2.99    7.74
  -2  20   9   10.89    9.17
  -2 -20   9   12.34   10.20
   2 -20  -9  -63.37   36.33
  -2  20  -9   -8.77    3.28
   2  20   9   40.01   54.81
  -2 -20   9    4.12    7.92
   2 -20  -9   -0.09    7.47
   1 -21   9   38.43   11.05
  -1  21   9   83.13   62.42
  -1 -21  -9  -14.29   45.91
   1 -21  -9   13.59    8.15
  -1  21  -9   41.42    8.81
   1  21   9   28.64   55.44
  -1 -21   9   14.58    9.92
   1 -21  -9  -29.87   39.52
   0   0  10  281.86   16.28
   0   0 -10  292.05   39.17
   0   0  10  275.81   20.29
   0   0 -10  285.22   35.93
   2   0  10  156.97   10.17
  -2   0 -10  148.95   16.47
   2   0  10  161.92   14.28
   2   0 -10  156.89   38.99
   2   0 -10  170.70   37.23
  -2   0  10  149.92   16.59
  -2   0 -10  142.31   15.46
  -2   0  10  162.63   13.25
  -4   0  10  224.37   21.66
   4   0  10  245.48   11.67
   4   0  10  255.38   16.36
   4   0 -10  296.45   57.69
   4   0 -10  245.74   49.47
   6   0 -10    9.14   45.33
   6   0 -10  166.06   57.60
  -6   0  10   99.58   17.45
  -1   1  10   17.82    7.52
  -1  -1 -10   37.94   16.22
  -1   1  10   29.40    7.21
   1   1 -10  -35.35   23.19
   1  -1  10   23.90    7.92
   1   1 -10   31.51   23.08
  -1  -1 -10   19.45   19.07
   1  -1  10   34.40    6.38
  -1  -1  10   30.73    7.04
  -1   1 -10   -2.44   16.28
   1   1  10   33.63    6.46
   1  -1 -10   13.49   24.37
   1  -1 -10   15.18   22.29
  -1  -1  10   27.71    9.23
  -1   1 -10   44.73   16.27
   1   1  10   24.02    8.55
  -3   1  10   47.55    9.45
   3  -1  10   35.32    7.99
   3   1 -10   34.06   31.81
   3   1 -10   56.43   34.61
  -3   1  10   40.04   10.70
   3  -1  10   33.34    5.23
   3   1  10   39.67    5.60
   3  -1 -10   20.98   29.95
   3   1  10   33.06    8.15
  -3  -1  10   30.84    7.77
   3  -1 -10   57.82   36.00
  -3  -1  10   24.15    9.64
  -5   1  10   10.93    9.24
   5   1 -10   22.88   38.42
   5   1 -10  -13.39   35.67
   5  -1  10   21.67    5.58
   5  -1 -10   19.74   38.89
  -5  -1  10   22.78   10.28
   5   1  10   20.66    6.22
   5  -1 -10  -22.49   38.83
   7   1 -10   50.19   48.29
  -7   1  10   13.11   10.82
   7   1 -10  -24.69   52.98
   7  -1 -10   -7.74   60.22
   7  -1 -10   -4.04   47.91
  -7  -1  10    9.41   10.03
   0  -2  10  313.82   16.53
   0  -2  10  286.83   20.49
   0  -2 -10  264.19   32.97
   0   2  10  287.38   16.65
   0   2 -10  275.72   37.89
   0   2 -10  301.27   38.07
   0  -2 -10  273.71   41.26
   0   2  10  277.96   20.73
   2  -2  10  149.67    9.94
   2  -2  10  168.28   14.21
  -2   2  10  176.78   13.71
  -2   2  10  141.62   16.29
  -2  -2 -10  151.60   19.96
  -2  -2 -10  137.31   18.54
   2   2 -10  191.77   43.15
   2   2 -10  203.48   40.32
   2  -2 -10  160.22   39.72
   2  -2 -10  153.07   36.41
   2   2  10  165.59   14.94
  -2  -2  10  150.09   16.25
   2   2  10  156.54   10.53
  -2  -2  10  163.83   13.21
  -4   2  10  225.71   21.65
   4   2 -10  179.46   51.04
   4  -2  10  248.13   15.03
   4  -2  10  230.82   10.96
  -4  -2  10  234.76   21.42
   4  -2 -10  205.66   54.47
   4   2  10  242.17   11.96
   4   2  10  262.52   17.17
   4  -2 -10  186.79   47.06
   6   2 -10  105.00   61.74
  -6   2  10  106.70   18.90
  -6  -2  10   96.97   16.54
   6  -2 -10  230.04   65.82
   6  -2 -10   12.68   41.06
   6   2  10  114.71   10.23
  -1  -3 -10   -0.32   15.66
  -1  -3 -10   41.79   21.72
   1   3 -10  -21.79   22.55
  -1   3  10    9.65    7.94
  -1   3  10    8.79    5.79
   1   3 -10    2.16   23.24
   1  -3  10   20.05    5.48
   1  -3  10   16.15    7.06
   1  -3 -10   17.28   26.19
   1  -3 -10    8.68   21.27
   1   3  10   14.65    7.87
  -1   3 -10   23.97   16.60
  -1  -3  10   10.70    7.29
  -1  -3  10   21.50    6.29
   1   3  10   12.87    5.00
  -1   3 -10    7.63   17.62
  -3   3  10   27.53    9.23
   3   3 -10   18.58   31.38
   3  -3  10   29.86    7.27
  -3  -3  10   23.61    8.95
  -3  -3  10   36.88    8.31
   3  -3 -10   46.30   32.00
   3   3  10   26.10    5.17
   3   3  10   29.02    8.58
   3  -3 -10  -13.95   32.63
  -5   3  10   14.45    9.63
   5   3 -10   35.31   40.26
   5   3  10   15.77    6.61
   5  -3 -10    8.86   38.60
   5   3  10   16.60    4.15
   5  -3 -10    0.14   42.36
  -5  -3  10   21.23   11.11
   7   3 -10   10.27   55.13
  -7   3  10    6.62   10.06
   7   3  10   10.70    4.57
   7  -3 -10   35.62   48.56
   7  -3 -10  -33.92   60.21
  -7  -3  10    7.48    9.40
   0  -4  10  261.98   15.98
   0   4  10  290.68   21.48
   0   4 -10  280.28   38.65
   0   4 -10  312.95   37.72
   0  -4  10  296.40   20.17
   0   4  10  278.60   16.67
   0  -4 -10  259.69   40.64
   0  -4 -10  328.99   36.68
  -2  -4 -10  121.60   21.39
  -2  -4 -10  130.35   22.89
   2  -4  10  144.79   12.74
  -2   4  10  154.23   16.58
   2   4 -10  183.25   40.41
  -2   4  10  132.14   12.82
   2  -4 -10  102.42   37.58
   2  -4 -10   65.49   31.41
   2   4  10  144.77   14.67
  -2  -4  10  161.02   13.03
   2   4  10  156.51   10.59
  -2  -4  10  151.61   15.86
   4  -4  10  184.85   12.55
   4   4 -10  179.92   50.86
  -4   4  10  203.67   20.77
   4   4  10  207.44   11.40
  -4  -4  10  216.21   19.85
   4   4  10  230.52   16.74
   4  -4 -10  168.76   50.53
  -4  -4  10   87.69   46.92
   6   4 -10  108.73   60.20
  -6   4  10   95.51   18.00
   6  -4 -10   28.15   43.92
   6  -4 -10  157.54   58.11
  -6  -4  10   49.65   55.81
   6   4  10   94.89   11.67
   6   4  10   98.16    8.09
  -6  -4  10  102.15   17.53
   1  -5  10   19.57    7.31
  -1   5  10    5.54    6.96
  -1   5  10   20.44    7.05
  -1  -5 -10   35.93   19.07
   1   5 -10   15.31   25.33
  -1  -5 -10   27.75   23.25
  -1   5 -10   -1.90   16.56
  -1  -5  10   16.93    7.94
  -1  -5  10   12.55    6.18
   1  -5 -10   54.71   31.85
   1   5  10   14.32    5.68
   1   5  10   18.91    8.55
   1  -5 -10   28.56   22.54
  -1   5 -10   24.20   17.25
   3  -5  10   29.40    6.66
  -3  -5 -10   14.98    9.65
  -3   5  10   27.41   10.40
   3   5 -10   21.09   33.91
  -3  -5  10   12.28    7.95
   3  -5 -10  -17.72   27.38
   3   5  10   13.96    5.06
  -3  -5  10   26.46   33.85
   3   5  10   13.90    7.80
   3  -5 -10   -5.44   32.53
  -5   5  10   17.54   11.06
   5   5 -10    4.59   38.71
   5  -5 -10  -25.88   32.30
  -5  -5  10    3.32   41.04
   5   5  10   12.34    6.79
   5   5  10   10.08    4.57
   5  -5 -10  106.79   52.48
  -5  -5  10   15.55    9.83
   7   5 -10  110.90   71.19
  -7   5  10    9.52    9.83
  -7  -5  10   41.06   67.31
   7   5  10   10.13    5.42
   7   5  10   11.88    6.13
   7  -5 -10  -23.52   47.56
   7   5  10    2.41    5.08
  -7  -5  10   11.23    9.71
   7  -5 -10  -15.02   62.84
   0   6 -10  211.56   34.71
   0  -6  10  242.99   17.94
   0  -6 -10  241.02   41.19
   0  -6 -10  207.66   33.65
   0   6  10  267.65   15.91
   0   6  10  207.10   18.89
  -2   6  10  150.94   19.52
  -2   6  10  124.75   12.01
   2   6 -10  153.90   39.43
   2  -6  10  113.66   11.45
  -2  -6 -10  103.90   23.73
  -2  -6 -10  106.81   25.73
   2   6  10   97.38    9.50
   2  -6 -10   90.41   31.13
  -2   6 -10  116.37   15.12
   2  -6 -10   37.48   35.70
  -2  -6  10  108.38   14.82
  -2  -6  10  120.31   11.74
  -2   6 -10  100.95   14.97
   2   6  10  122.93   15.17
  -2  -6  10   75.40   34.48
   4  -6  10  158.73   11.08
   4   6 -10  176.93   45.72
  -4   6  10  175.13   19.82
  -4  -6  10  135.33   48.37
   4  -6 -10  181.43   54.93
   4   6  10  197.47   16.60
   4   6  10  191.74   11.61
  -4  -6  10  204.88   19.68
   6   6 -10   43.46   51.64
  -6   6  10   76.73   17.38
   6   6  10  106.84   13.43
   6  -6 -10  -19.35   39.28
  -6  -6  10  188.02   65.20
   6   6  10  119.37    9.76
   6  -6 -10   30.43   53.53
  -6  -6  10  116.57   19.72
  -1  -7 -10   27.18   26.51
   1   7 -10    1.17   26.75
   1  -7  10   22.35    7.48
  -1  -7 -10   -7.26   18.09
  -1   7  10   20.42    9.50
  -1   7  10   24.23    7.28
   1   7 -10   23.55    8.47
   1  -7 -10   24.75   32.38
  -1   7 -10   16.02   19.19
   1   7  10   30.41   10.01
   1  -7 -10   -4.14   22.54
  -1  -7  10   23.28    9.04
   1   7  10   11.45    5.81
   3   7 -10   -6.17   31.61
  -3   7  10   13.54    9.47
  -3  -7 -10    8.28   18.69
   3  -7  10   19.66    6.08
  -3  -7 -10    9.65   17.80
   3  -7 -10   -2.66   27.10
  -3  -7  10   24.19   35.65
  -3  -7  10   16.80    8.87
   3   7  10    6.52    6.99
   3   7  10   14.02    5.48
   3  -7 -10   -0.59   31.77
   5  -7  10   15.76    4.62
   5   7 -10   12.59   44.16
  -5   7  10   14.45   11.36
  -5  -7  10   29.15   12.21
   5   7  10   28.45    8.87
  -5  -7  10   33.85   49.22
   5  -7 -10  -27.14   32.78
   5  -7 -10   15.26   42.94
   5   7  10   26.59    5.96
   0   8  10  192.84   18.88
   0  -8 -10  130.65   37.56
   0  -8  10  148.47   36.50
   0   8  10  214.00   14.81
   0  -8  10  208.00   16.52
   0   8 -10  238.64   17.46
   0  -8 -10  161.00   32.02
   0   8 -10  198.28   34.92
  -2   8  10  104.35   16.03
   2   8 -10  173.66   40.70
  -2  -8 -10   44.00   25.68
  -2  -8 -10   78.84   28.26
   2  -8  10   97.70   10.76
  -2   8 -10   85.47   18.97
  -2  -8  10   71.38   37.90
  -2   8 -10   82.54   17.16
   2   8  10   93.51   13.89
   2   8  10  112.21   10.44
  -2  -8  10  139.43   17.80
  -2  -8  10  123.24   11.31
   2  -8 -10   50.72   35.53
   2  -8 -10  108.74   32.85
   4   8 -10  100.78   46.34
  -4  -8 -10   95.21   17.60
  -4  -8 -10  132.56   19.64
  -4   8  10  167.38   22.57
   4   8  10  160.54   11.40
   4  -8 -10  107.63   52.22
  -4  -8  10  171.29   52.42
   4   8  10  176.38   16.30
  -4  -8  10  149.48   18.50
   6   8 -10  102.34   61.68
   6  -8  10   89.99    7.34
  -6   8  10   69.30   15.44
   6  -8 -10   64.51   50.15
   6   8  10   88.64   10.34
  -6  -8  10   77.96   15.89
  -6  -8  10   37.80   57.34
   6  -8 -10   60.72   58.55
   6   8  10   82.63   12.77
  -1  -9 -10   29.03   28.41
   1   9 -10   11.61   26.46
  -1  -9 -10   18.56   22.66
   1   9 -10   36.93    9.82
  -1   9  10    9.13    8.21
  -1   9  10   15.81    6.67
   1  -9  10   17.44    7.18
   1  -9  10   14.34   22.72
   1  -9 -10  -38.76   32.79
  -1  -9  10    4.22   27.95
   1   9  10   12.25    5.84
  -1  -9  10   28.48    9.52
   1  -9 -10   16.49   25.82
   1   9  10   14.59    8.50
  -1   9 -10    3.61   20.74
  -3  -9 -10   28.27   24.41
   3   9 -10   12.35   34.64
  -3   9  10   18.71   10.05
   3  -9  10   15.50    5.75
  -3  -9 -10   40.67   24.56
   3   9  10   14.76    8.67
  -3  -9  10   21.61   36.90
  -3  -9  10   41.07   12.18
   3   9  10   20.61    6.22
   3  -9 -10   19.44   26.89
   3  -9 -10  -20.17   40.71
   5   9 -10  -20.64   48.41
  -5   9  10   17.64    9.14
   5  -9  10   22.25    5.54
  -5  -9  10   26.18   11.05
  -5  -9  10   33.35   45.70
   5   9  10    3.18    7.13
   5  -9 -10  -43.66   40.06
   5   9  10   31.77    7.14
   5  -9 -10  -22.15   51.50
   0 -10  10  137.64   34.90
   0  10 -10  186.15   35.61
   0  10 -10  221.91   17.19
   0  10  10  188.88   14.59
   0 -10  10  159.19   15.35
   0 -10 -10  213.67   46.05
   0 -10 -10  145.40   32.77
   0  10  10  171.16   18.88
  -2 -10 -10   58.46   30.82
   2 -10  10   76.91   23.73
   2 -10  10   83.49   10.42
  -2 -10 -10   14.65   27.19
  -2  10  10   85.18   16.48
   2  10 -10    6.03   32.82
  -2  10 -10   47.68   18.59
   2 -10 -10   16.12   38.39
  -2 -10  10  108.77   41.19
   2 -10 -10   76.91   33.60
   2  10  10   86.55   10.19
  -2 -10  10   89.76   13.44
   2  10  10   94.03   15.84
   4  10 -10  101.28   49.17
  -4  10  10  116.82   17.79
  -4 -10 -10   67.34   28.49
  -4 -10 -10  101.31   27.63
   4 -10  10  144.40   11.03
  -4 -10  10  147.25   20.27
  -4 -10  10   73.90   43.32
   4  10  10  142.88   15.89
   4 -10 -10  113.99   56.56
   4  10  10  140.25   11.82
  -6  10  10   44.60   12.37
   6 -10  10   60.65    7.32
   6  10 -10   19.79   57.17
   6 -10 -10   76.52   61.35
   6 -10 -10    5.72   44.90
   6  10  10   85.86   14.08
  -6 -10  10  136.51   66.57
  -6 -10  10   63.56   14.05
   1  11 -10   21.37    8.52
   1  11 -10    7.04   28.53
  -1 -11 -10   13.16   26.33
   1 -11  10   -4.75   25.53
   1 -11  10   14.34    6.83
  -1 -11 -10   10.75   30.55
  -1  11  10   10.98    9.68
   1 -11 -10  -18.75   24.65
  -1  11 -10   26.38    7.82
   1 -11 -10  -33.13   35.97
  -1 -11  10   12.57    7.67
  -1  11 -10    2.47   23.58
   1  11  10   20.86    8.54
   1  11  10   16.41    6.56
  -1 -11  10   14.87   33.35
   3  11 -10   20.25   38.27
  -3  11  10   11.21    8.55
  -3 -11 -10   14.59   27.84
   3 -11  10   15.43    5.54
  -3 -11 -10   25.54   29.65
   3  11  10    3.26    8.14
  -3  11 -10   20.18   11.37
  -3 -11  10    9.99   39.55
   3 -11 -10   44.03   31.50
  -3 -11  10   19.84    9.80
   3  11  10   12.36    6.66
   3 -11 -10  -13.26   41.87
   5 -11  10   23.45    6.40
  -5 -11 -10   67.62   25.26
   5  11 -10    4.51   49.94
  -5 -11 -10   28.85   24.77
  -5  11  10   23.74   11.69
  -5 -11  10   26.33   11.29
  -5 -11  10   38.17   53.21
   5  11  10   20.58    9.94
   5 -11 -10   33.86   37.12
   5 -11 -10  -83.98   55.17
   5  11  10    9.46    6.87
   0 -12  10  121.98   13.58
   0  12 -10  109.10   33.27
   0  12 -10  140.59   14.59
   0 -12 -10  102.32   43.09
   0 -12 -10  130.51   35.37
   0 -12  10   48.91   32.93
   0  12  10   98.21   15.33
  -2 -12 -10   11.01   31.56
  -2  12  10   55.78   12.72
   2  12 -10   76.55   39.27
   2 -12  10   24.98   25.04
   2 -12  10   67.24    9.49
  -2 -12 -10   35.66   34.62
  -2 -12  10   65.57   12.18
   2  12  10   54.94   11.58
   2 -12 -10   31.60   44.25
  -2  12 -10   89.84   22.98
  -2 -12  10   46.43   39.50
   2  12  10   74.19    9.70
   2 -12 -10    6.02   29.10
  -4 -12 -10   67.26   32.55
  -4 -12 -10   42.69   34.63
   4  12 -10   97.04   50.83
   4 -12  10  104.03   11.10
  -4  12  10   80.30   15.55
  -4 -12  10  108.94   16.23
  -4 -12  10  106.41   56.80
   4 -12 -10   -8.34   36.50
   4  12  10  140.19   11.95
   4  12  10   78.12   14.44
   4 -12 -10  112.18   58.71
   1 -13  10   13.72   30.06
   1 -13  10   12.79    7.03
  -1 -13 -10  -41.71   29.29
  -1 -13 -10  -42.13   33.29
   1  13 -10   37.45   31.30
  -1  13  10   14.72   10.65
   1  13  10   -8.17    5.89
   1 -13 -10  -35.08   27.56
  -1 -13  10    7.14    7.54
  -1  13 -10    0.37   26.84
  -1  13 -10   28.14    8.70
  -1 -13  10   -4.25   34.77
   1 -13 -10   20.62   40.94
   3 -13  10    3.07   20.62
   3  13 -10   -1.28   40.12
   3 -13  10   21.95    7.41
  -3 -13 -10  -30.36   33.24
  -3  13  10    7.64    8.24
  -3 -13 -10   25.97   33.33
  -3 -13  10    3.96   42.35
  -3  13 -10   -2.41   18.09
   3 -13 -10   43.96   49.91
   3  13  10    6.93    8.16
   3  13  10   10.14    6.51
  -3 -13  10    7.14    8.46
   5  13 -10    6.52   53.57
  -5  13  10   18.00   11.18
   5 -13  10    8.05    6.23
  -5 -13 -10  -25.38   32.62
   5 -13 -10   21.49   65.48
   5 -13 -10  -23.05   39.52
  -5 -13  10   37.22   93.20
  -5 -13  10   15.93   10.22
   5  13  10   15.38    7.57
   0  14 -10  108.36   34.11
   0 -14 -10   48.25   42.70
   0 -14 -10   30.94   33.87
   0  14 -10  136.22   14.09
   0 -14  10  101.75   13.40
   0 -14  10   97.05   38.24
   0  14  10   91.23   16.09
   2 -14  10   40.37    9.25
   2  14 -10   22.67   35.94
   2 -14  10   62.53   30.75
   2 -14  10   61.66    9.82
  -2  14  10   62.67   14.89
  -2 -14 -10   18.61   36.72
  -2 -14 -10   23.56   39.53
   2  14  10   42.81   11.71
   2 -14 -10    5.48   32.60
   2 -14 -10   97.61   55.63
  -2 -14  10   16.31   41.32
  -2 -14  10   68.18   12.78
  -2  14 -10   75.60   10.06
  -2  14 -10   51.97   24.24
   4  14 -10   85.69   55.07
   4 -14  10   71.90   10.37
  -4  14  10   47.94   13.31
  -4 -14 -10   35.19   39.53
   4 -14 -10  -28.11   36.36
  -4 -14  10   73.31   59.68
  -4 -14  10   69.32   14.10
   4 -14 -10  -15.15   58.05
  -1 -15 -10  -37.61   33.91
  -1  15  10   11.13    8.90
   1 -15  10   21.15    9.07
  -1 -15 -10   68.19   45.45
   1 -15  10   15.74   32.50
   1  15 -10   11.22   33.34
   1 -15  10    9.57    6.81
  -1 -15  10    4.56    7.32
   1 -15 -10   -2.72   32.50
  -1  15 -10   23.81   29.74
  -1  15 -10   13.00    7.74
  -1 -15  10  -13.41   36.40
   1 -15 -10    5.34   44.65
   1  15  10   17.21    9.89
   3  15 -10   45.22   49.02
   3 -15  10   12.73    7.07
  -3 -15 -10   -7.97   39.96
   3 -15  10  -19.16   28.05
  -3  15  10   32.27   12.74
   3 -15 -10  -30.68   53.60
  -3  15 -10  -16.40   22.73
  -3 -15  10   12.37    9.09
   0 -16  10   72.01   12.94
   0  16  10   60.99   14.30
   0 -16 -10   14.99   49.42
   0 -16 -10  -40.26   34.25
   0  16 -10   81.19   16.07
   0  16 -10   11.89   37.55
   2 -16  10   63.90   10.87
  -2 -16 -10   31.20   40.37
  -2  16  10   35.49   11.31
   2 -16 -10  -37.70   55.79
   2 -16 -10    2.23   36.69
  -2 -16  10   58.12   12.40
  -2  16 -10   73.41   31.58
   4 -16 -10   39.02   10.64
  -1  17  10   24.44   11.87
  -1 -17 -10   40.35   39.77
   1 -17  10    3.40    8.11
  -1  17 -10    5.61    6.93
   1 -17 -10  -45.66   37.28
  -1 -17  10   16.02    9.28
  -1 -17  10   18.16    8.86
   1  17  10   12.40    9.71
   3 -17 -10   13.03    8.46
   0 -18 -10   -5.99   42.45
   0  18  10   36.86   12.81
   0 -18  10   28.99   11.20
   2 -18 -10   18.73    7.88
   0   0 -11   21.20   26.87
   0   0 -11   27.08   23.64
   0   0  11   44.50    8.55
   0   0  11   39.68   10.53
   2   0  11   25.37    8.89
   2   0 -11  -24.47   33.52
  -2   0  11   25.61   10.52
   2   0  11   30.92    6.14
   2   0 -11   16.47   31.71
   4   0 -11   53.06   45.90
  -4   0  11    5.10    8.16
   4   0  11   14.21    6.93
   4   0  11   13.93    4.16
   4   0 -11   11.11   37.12
  -6   0  11   15.92   10.57
   1   1 -11  129.57   35.85
   1  -1  11  165.73   12.11
  -1   1  11  143.08   13.28
  -1   1  11  175.17   18.18
  -1  -1 -11  151.29   27.64
   1   1 -11  158.03   35.96
  -1  -1 -11  155.20   24.37
   1  -1  11  163.52   15.86
   1  -1 -11   71.75   34.47
  -1  -1  11  180.78   13.69
  -1  -1  11  197.44   18.65
   1  -1 -11  119.43   34.20
   1   1  11  168.30   12.37
   1   1  11  174.01   16.61
  -1   1 -11  143.72   23.13
  -1   1 -11  153.32   26.76
   3  -1  11  153.32   10.04
  -3   1  11  169.03   19.29
   3   1 -11   69.56   42.79
   3  -1  11  145.90   14.09
   3  -1 -11  120.49   45.83
   3   1  11  173.22   15.27
  -3  -1  11  152.71   21.05
   3   1  11  150.93   10.30
   5  -1  11  102.36    9.96
   5   1 -11  152.86   60.17
  -5   1  11   74.47   14.92
   5   1 -11    9.32   45.83
  -5  -1  11   98.74   16.49
   5  -1 -11  111.42   53.21
   5   1  11  101.58   11.22
   5   1  11   92.65    6.72
   0   2  11   20.37    6.83
   0  -2  11   28.88    7.11
   0  -2 -11   19.51   27.09
   0   2  11   18.88    8.98
   0   2 -11   25.62   25.69
   0   2 -11   24.01   22.99
   0  -2 -11    2.95   21.22
   0  -2  11   28.36    9.61
   2  -2  11   20.37    7.78
  -2  -2 -11   13.26   13.70
   2   2 -11  -23.53   31.40
   2  -2  11   18.10    5.48
  -2  -2 -11    9.61   12.80
   2   2 -11  -12.35   28.97
  -2   2  11   14.73    8.87
   2  -2 -11   13.71   30.71
   2   2  11   10.77    5.43
  -2  -2  11   24.97    9.70
   2  -2 -11  -43.30   30.96
   2   2  11   15.44    7.85
   4   2 -11    7.88   43.71
  -4   2  11   21.35   10.19
   4  -2  11   10.63    3.77
   4  -2  11    7.84    5.77
   4   2 -11    8.24   38.97
   4  -2 -11   32.13   37.87
  -4  -2  11   17.02   10.58
   4  -2 -11  -19.32   44.38
   4   2  11    9.37    6.73
   4   2  11    8.80    4.17
   1  -3  11  148.59   11.39
  -1   3  11  163.80   13.10
  -1   3  11  129.35   17.53
  -1  -3 -11  128.34   25.69
   1   3 -11  141.41   36.79
  -1  -3 -11   88.25   28.83
   1  -3  11  150.82   15.16
   1   3 -11  144.83   36.51
  -1  -3  11  162.57   17.07
   1   3  11  143.27   11.82
   1  -3 -11  132.19   33.71
   1  -3 -11  156.43   41.66
   1   3  11  147.65   15.89
  -1  -3  11  127.94   12.26
  -1   3 -11  152.63   24.24
  -1   3 -11   99.95   24.14
   3  -3  11  141.88   12.85
  -3   3  11  131.16   18.50
   3   3 -11   46.83   46.29
   3  -3  11  149.20    9.50
   3   3  11  128.01    9.90
  -3  -3  11  143.88   19.70
   3   3  11  129.13   14.45
   3  -3 -11  141.57   48.79
   5   3 -11  131.04   58.70
  -5   3  11  104.14   19.16
   5   3 -11    2.21   39.77
  -5  -3  11   83.85   16.59
   5   3  11   91.71    7.69
   5   3  11  123.79   12.60
   5  -3 -11   61.91   58.01
   0   4  11   16.25    9.21
   0   4  11    4.63    5.63
   0  -4  11   18.47    7.85
   0   4 -11   -7.81   22.95
   0   4 -11    9.47   26.13
   0  -4 -11   -4.32   22.13
   0  -4  11    7.07    5.62
   0  -4 -11   35.75   29.42
  -2  -4 -11   -9.43   17.89
   2  -4  11    6.74    6.51
   2  -4  11    7.58    4.78
   2   4 -11  -10.74   32.47
   2   4 -11   -3.55   31.93
  -2  -4 -11    7.56   17.80
  -2   4  11   11.98    9.95
   2   4  11   11.74    8.05
  -2  -4  11   13.29    9.45
   2  -4 -11   19.96   38.02
   2   4  11   12.91    5.77
   2  -4 -11   29.99   28.76
   4  -4  11   12.46    5.94
   4   4 -11   15.26   42.73
  -4   4  11   12.89    9.03
   4  -4  11   14.57    4.10
   4  -4 -11   28.91   39.75
   4   4  11    6.21    7.18
   4  -4 -11   33.03   48.29
  -4  -4  11   10.04    9.91
   4   4  11   15.16    5.08
  -1   5  11  155.49   12.48
  -1   5  11   98.35   15.69
   1  -5  11  143.98   11.02
  -1  -5 -11  109.37   30.96
   1   5 -11  139.12   38.37
   1  -5  11  104.20   14.02
  -1  -5 -11   84.30   25.27
   1   5 -11   99.84   36.87
   1  -5 -11   90.13   37.99
  -1  -5  11   97.54   14.52
  -1   5 -11   74.10   23.02
   1   5  11  132.82   17.70
  -1  -5  11  123.58   11.89
  -1   5 -11  125.64   25.03
   1   5  11  131.46   11.52
   1  -5 -11   87.15   30.61
  -3   5  11  168.51   22.65
   3  -5  11  116.26   11.71
   3   5 -11   54.74   40.93
   3   5  11  140.37   15.44
  -3  -5  11  107.52   16.45
   3  -5 -11   67.60   45.34
   3   5  11  128.25   10.24
   3  -5 -11    5.59   33.57
   5   5 -11   81.78   64.89
  -5   5  11   85.29   17.57
   5   5  11   81.43    8.45
  -5  -5  11   73.28   15.94
   5  -5 -11  119.50   57.05
   5   5  11   85.64   12.51
   0  -6  11   19.89    6.81
   0  -6  11   10.71    7.24
   0   6 -11    9.73   25.55
   0   6  11   21.02    7.20
   0  -6 -11   22.01   25.26
   0   6 -11  -47.48   25.47
   0  -6 -11   18.03   32.82
   0   6  11    1.99    7.66
   2   6 -11   19.42   34.95
  -2  -6 -11  -21.98   21.17
  -2   6  11    5.22    8.09
   2  -6  11   19.14    7.30
  -2  -6 -11  -12.99   22.18
  -2  -6  11   17.65    9.01
   2   6  11   16.79    8.35
   2  -6 -11   18.01   28.84
   2   6  11   22.79    6.38
   2  -6 -11   -1.77   36.54
  -4   6  11   20.81   10.39
   4   6 -11   12.41   44.81
   4  -6  11   19.84    5.59
  -4  -6  11   10.50   48.78
   4  -6 -11  -10.02   38.18
  -4  -6  11   37.63   12.16
   4  -6 -11   29.81   51.48
   4   6  11   15.01    8.17
   4   6  11   19.36    5.62
   1  -7  11  121.08   14.96
  -1  -7 -11   16.89   30.86
   1   7 -11   56.99   32.20
  -1  -7 -11  126.34   29.66
  -1   7  11  128.09   19.82
   1  -7 -11   91.55   33.02
  -1   7 -11   89.97   25.80
   1   7  11  111.87   17.24
   1  -7 -11   72.08   38.18
  -1  -7  11   81.94   13.94
   1   7  11  117.61   11.50
  -1  -7  11  155.20   11.85
  -1   7 -11   88.52   24.10
  -3  -7 -11   82.94   20.25
   3  -7  11  108.30   10.98
  -3  -7 -11  100.76   20.56
  -3   7  11  124.40   20.18
   3   7 -11  168.70   50.42
   3  -7 -11  119.59   50.72
  -3  -7  11   -0.91   42.58
  -3  -7  11  136.35   19.48
   3   7  11  109.36   10.20
   3  -7 -11   19.18   34.34
   3   7  11  132.49   17.66
  -5   7  11   78.43   16.08
   5   7  11   82.22   13.59
   5   7  11   98.61    9.61
   5  -7 -11   41.07   47.96
  -5  -7  11   82.21   15.84
   0   8  11   -0.03    7.15
   0  -8 -11   38.20   34.61
   0  -8 -11   -5.55   26.13
   0  -8  11   15.95    7.65
   0   8  11    8.06    5.26
   0   8 -11  -14.22   27.06
  -2  -8 -11   18.57   26.72
  -2   8  11   10.27    9.59
   2   8 -11   -1.49   36.81
   2  -8  11   15.10    7.10
  -2  -8 -11    6.28   27.16
  -2  -8  11   30.95   10.59
   2  -8 -11   12.66   42.07
   2   8  11    8.86    5.71
  -2  -8  11    2.83   37.37
  -2   8 -11   11.64   10.44
   2  -8 -11   17.07   29.47
  -2   8 -11   18.55   12.01
   2   8  11   17.08    9.67
  -4   8  11    5.23   10.13
   4  -8 -11   14.76   37.93
   4   8  11   17.83    8.85
  -4  -8  11   16.96   10.34
   4  -8 -11  -28.67   50.35
   4   8  11    9.70    5.69
  -1  -9 -11   18.45   28.93
   1   9 -11   48.78   34.53
  -1   9  11  104.07   18.62
  -1  -9 -11   17.70   35.47
   1  -9  11   91.55   12.81
   1   9  11  119.13   11.07
  -1  -9  11   92.49   14.01
  -1  -9  11   83.03   40.41
   1  -9 -11   21.12   43.39
   1   9  11   75.08   13.68
   1  -9 -11   30.92   28.59
  -1   9 -11   48.66   25.36
  -3  -9 -11   45.48   28.54
   3   9 -11   53.03   43.74
  -3   9  11   92.36   16.80
  -3  -9 -11   99.65   29.19
   3  -9  11  108.61   10.72
   3   9  11   86.77   10.39
   3  -9 -11   60.74   49.69
   3   9  11  119.05   17.00
   3  -9 -11   20.40   37.96
  -3  -9  11  105.34   79.01
  -3  -9  11  115.17   17.09
   0 -10 -11  -24.76   34.35
   0 -10 -11   37.43   29.60
   0  10  11    7.11    8.93
   0 -10  11    7.15    7.70
   0  10 -11   27.16    7.53
   0 -10  11  -80.22   30.53
   0  10 -11   -4.66   28.29
  -2  10  11    7.83   10.24
  -2 -10 -11   39.57   32.89
   2  10 -11  -15.31   37.47
  -2 -10 -11   18.31   30.15
   2 -10  11   13.06    6.55
   2 -10 -11   25.91   45.17
   2  10  11    9.40    6.06
   2 -10 -11  -27.48   31.80
  -2  10 -11   -4.99   19.07
  -2 -10  11    1.38   41.11
  -2 -10  11    7.83    8.19
  -2  10 -11    6.32   16.55
   2  10  11   18.12    9.02
   4 -10  11   10.42    6.02
  -4 -10 -11   13.00   21.38
  -4 -10 -11    0.27   21.54
  -4  10  11    9.04   10.61
  -4 -10  11   11.62    9.30
   4  10  11    8.71    8.69
   4 -10 -11  -51.65   38.62
   4  10  11   12.51    6.57
   1  11 -11   63.59   37.69
   1 -11  11   94.81   34.98
   1 -11  11   59.69   10.64
  -1  11  11   58.46   12.89
  -1 -11 -11   57.76   34.59
  -1 -11 -11   76.56   42.07
   1  11  11   71.87   15.10
   1 -11 -11   33.31   46.10
  -1 -11  11  105.27   68.24
  -1 -11  11   50.85   11.74
   1 -11 -11   27.96   32.06
  -1  11 -11   65.70   29.83
   3 -11  11   76.68    9.58
  -3 -11 -11  -14.92   32.35
  -3 -11 -11   79.29   36.98
  -3  11  11   84.92   17.56
   3 -11 -11  -12.70   36.52
  -3 -11  11   83.18   15.37
   3  11  11   81.63   15.74
   3  11  11   87.45   10.39
   0 -12  11    4.70    6.50
   0  12  11    3.64    8.54
   0 -12 -11  -10.91   29.99
   0  12 -11   14.27   36.18
  -2 -12 -11   24.28   36.86
  -2  12  11    9.03    9.84
   2 -12  11    9.96    6.49
   2 -12 -11  -15.95   33.64
   2  12  11   11.86   10.60
  -2  12 -11   15.19   20.24
  -2 -12  11   12.12    8.72
  -1 -13 -11  -25.05   35.23
  -1  13  11   32.84   11.61
   1 -13  11   69.75   11.06
  -1  13 -11   76.27   11.55
   1 -13 -11    0.60   33.29
  -1 -13  11   76.04   13.00
   1  13  11   44.08   12.32
   0 -14  11    7.12    7.04
   0  14  11   12.94   10.05
   0 -14 -11  -27.34   36.34
   0   0  12  177.45   13.19
   0   0 -12   60.96   30.11
   0   0 -12   78.98   32.90
   0   0  12  135.26   18.00
   2   0  12  144.26   11.15
   2   0  12  119.99   16.13
   2   0 -12   60.21   38.84
  -2   0  12  121.60   17.79
   1  -1  12   34.59    9.57
   1  -1  12   11.91    6.30
   1   1 -12   -4.79   30.68
  -1   1  12   19.30    9.59
  -1  -1 -12  -16.75   20.22
  -1  -1 -12    9.79   23.85
   1   1 -12   22.72   40.19
  -1   1 -12    9.08   22.92
   1   1  12   17.66    6.59
   1  -1 -12   -2.01   30.31
   1   1  12    9.60    8.06
  -1   1 -12   23.20   19.08
   1  -1 -12   24.03   42.75
  -1  -1  12   17.74    9.46
   3  -1  12    6.90    4.89
   3  -1  12    2.57    6.63
   3   1 -12   28.60   41.26
  -3   1  12   12.37   10.17
   3  -1 -12   -0.05   38.21
   3   1  12   12.30    7.98
  -3  -1  12   12.59   10.25
   3   1  12    0.01    4.50
   0  -2 -12   81.24   29.52
   0  -2  12  149.57   12.53
   0   2  12  175.63   12.43
   0  -2 -12   99.98   39.40
   0   2 -12   76.54   31.52
   0  -2  12  112.63   16.24
   0   2 -12   46.14   30.29
   0   2  12  130.41   18.56
  -2   2  12  132.05   19.07
   2  -2  12  124.08   10.44
   2  -2  12  119.31   15.10
   2  -2 -12    5.46   35.58
   2   2  12  112.37   15.66
   2   2  12  133.21   11.30
  -2  -2  12  142.91   18.73
   1  -3  12   32.19    7.49
  -1  -3 -12   22.87   22.80
  -1   3  12   24.49   10.86
   1   3 -12   10.71   33.83
  -1  -3 -12   14.87   26.81
   1  -3  12   28.97    8.96
  -1   3 -12   19.22   21.85
  -1  -3  12   21.87   10.31
  -1   3 -12   22.92   18.66
   1  -3 -12   -2.77   30.88
   1   3  12   15.50    6.72
   1   3  12   11.24    8.26
   3  -3  12   15.93    5.03
  -3   3  12   10.59   10.36
   3  -3  12    9.50    6.68
   3   3 -12   -0.24   43.88
   3   3  12    7.16    7.53
   3  -3 -12    7.34   39.21
  -3  -3  12    6.40    9.66
   3   3  12    7.75    5.29
   0   4 -12   25.61   31.02
   0  -4  12  109.08   16.42
   0   4 -12   89.60   32.70
   0   4  12  111.06   18.22
   0   4  12  106.22   15.24
   0  -4 -12   80.29   30.76
   0  -4 -12   18.25   37.66
   0  -4  12  126.32   11.27
  -2  -4 -12   87.75   19.89
   2  -4  12   93.61   13.23
   2  -4  12  103.58    9.96
  -2   4  12  110.27   19.03
   2   4 -12   -4.20   39.29
  -2  -4 -12   58.56   17.82
   2   4  12  106.06   10.38
  -2  -4  12   99.81   17.35
   2   4  12   89.20   14.60
  -1  -5 -12  -14.08   25.66
  -1   5  12    9.89    9.55
   1  -5  12   27.18    9.45
   1   5 -12   10.92   35.81
  -1  -5 -12   44.58   30.62
   1  -5  12    1.90    5.59
   1   5  12   11.67    8.83
   1  -5 -12   14.17   31.52
   1   5  12   28.68    6.72
  -1   5 -12   17.23   19.86
  -1   5 -12   15.18   21.55
  -1  -5  12    7.02    7.77
   3  -5  12    7.91    5.13
   3   5  12    2.25    5.08
   0  -6 -12   81.74   33.17
   0  -6  12   70.71   12.88
   0   6  12   70.26   13.79
   0  -6  12  102.16   10.30
   0   6 -12   74.86   33.88
   2  -6  12  113.39   10.16
   2   6 -12    3.04   41.73
  -2  -6 -12   22.46   25.77
  -2  -6 -12   76.92   26.17
  -2   6  12  110.65   20.05
   2  -6  12   75.81   11.97
   2   6  12   85.05   15.50
   2  -6 -12  -12.18   36.03
   2   6  12  106.17   10.29
  -2  -6  12   92.21   15.50
   1   7 -12    7.19   40.40
   1  -7  12   14.24    7.49
  -1  -7 -12    9.58   29.16
   1  -7  12    8.80    5.83
  -1   7  12   18.06   10.93
   1   7  12   -0.18    6.17
   1  -7 -12   46.58   33.95
  -1   7 -12   36.22   23.22
  -1  -7  12    1.97    7.49
  -1   7 -12  -14.15   23.86
   1   7  12   -2.44    7.82
   0  -8  12   76.05   13.45
   0   8  12   66.26   15.11
   0   8 -12   50.60   37.41
   0  -8 -12   91.81   35.13
   2   8  12  116.21   10.35
   0   0   0    0.00    0.00

_computing_structure_solution     'SHELXT 2018/2 (Sheldrick, 2018)'
;
_shelx_hkl_checksum                80479
_olex2_submission_special_instructions  'No special instructions were received'
loop_
  _twin_individual_id
  _twin_individual_mass_fraction_refined
 1 0.48772
 2 0.51228

