
#======================================================================
# CRYSTAL DATA
#----------------------------------------------------------------------
data_VESTA_phase_1

_chemical_name_common                  'Ce Cs N8 O24, 4(C7 H14 N O)           '
_cell_length_a                         10.179894
_cell_length_b                         10.179894
_cell_length_c                         45.457222
_cell_angle_alpha                      90.000000
_cell_angle_beta                       90.000000
_cell_angle_gamma                      90.000000
_cell_volume                           4710.743322
_space_group_name_H-M_alt              'P 1'
_space_group_IT_number                 1

loop_
_space_group_symop_operation_xyz
   'x, y, z'

loop_
   _atom_site_label
   _atom_site_occupancy
   _atom_site_fract_x
   _atom_site_fract_y
   _atom_site_fract_z
   _atom_site_adp_type
   _atom_site_U_iso_or_equiv
   _atom_site_type_symbol
   Ce1        1.0     0.766665     0.233335     0.375000    Uiso  ? Ce
   Ce2        1.0     0.233335     0.766665     0.875000    Uiso  ? Ce
   Ce3        1.0     0.766665     0.766665     0.125000    Uiso  ? Ce
   Ce4        1.0     0.233335     0.233335     0.625000    Uiso  ? Ce
   Cs1        1.0     0.265368     0.734632     0.375000    Uiso  ? Cs
   Cs2        1.0     0.734632     0.265368     0.875000    Uiso  ? Cs
   Cs3        1.0     0.265368     0.265368     0.125000    Uiso  ? Cs
   Cs4        1.0     0.734632     0.734632     0.625000    Uiso  ? Cs
   O1         1.0     0.773091     0.263789     0.280404    Uiso  ? O
   O2         1.0     0.226909     0.736211     0.780404    Uiso  ? O
   O3         1.0     0.736211     0.773091     0.030404    Uiso  ? O
   O4         1.0     0.263789     0.226909     0.530404    Uiso  ? O
   O5         1.0     0.226909     0.263789     0.719596    Uiso  ? O
   O6         1.0     0.773091     0.736211     0.219596    Uiso  ? O
   O7         1.0     0.263789     0.773091     0.969596    Uiso  ? O
   O8         1.0     0.736211     0.226909     0.469596    Uiso  ? O
   O9         1.0     0.705555     0.334526     0.323572    Uiso  ? O
   O10        1.0     0.294445     0.665474     0.823572    Uiso  ? O
   O11        1.0     0.665474     0.705555     0.073572    Uiso  ? O
   O12        1.0     0.334526     0.294445     0.573572    Uiso  ? O
   O13        1.0     0.294445     0.334526     0.676428    Uiso  ? O
   O14        1.0     0.705555     0.665474     0.176428    Uiso  ? O
   O15        1.0     0.334526     0.705555     0.926428    Uiso  ? O
   O16        1.0     0.665474     0.294445     0.426428    Uiso  ? O
   O17        1.0     0.859922     0.185042     0.321191    Uiso  ? O
   O18        1.0     0.140078     0.814958     0.821191    Uiso  ? O
   O19        1.0     0.814958     0.859922     0.071191    Uiso  ? O
   O20        1.0     0.185042     0.140078     0.571191    Uiso  ? O
   O21        1.0     0.140078     0.185042     0.678809    Uiso  ? O
   O22        1.0     0.859922     0.814958     0.178809    Uiso  ? O
   O23        1.0     0.185042     0.859922     0.928809    Uiso  ? O
   O24        1.0     0.814958     0.140078     0.428809    Uiso  ? O
   O25        1.0     0.065458     0.934542     0.375000    Uiso  ? O
   O26        1.0     0.934542     0.065458     0.875000    Uiso  ? O
   O27        1.0     0.065458     0.065458     0.125000    Uiso  ? O
   O28        1.0     0.934542     0.934542     0.625000    Uiso  ? O
   O29        1.0     0.008785     0.142636     0.376954    Uiso  ? O
   O30        1.0     0.991215     0.857364     0.876954    Uiso  ? O
   O31        1.0     0.857364     0.008785     0.126954    Uiso  ? O
   O32        1.0     0.142636     0.991215     0.626954    Uiso  ? O
   O33        1.0     0.991215     0.142636     0.623046    Uiso  ? O
   O34        1.0     0.008785     0.857364     0.123046    Uiso  ? O
   O35        1.0     0.142636     0.008785     0.873046    Uiso  ? O
   O36        1.0     0.857364     0.991215     0.373046    Uiso  ? O
   O37        1.0     0.066907     0.529336     0.389682    Uiso  ? O
   O38        1.0     0.933093     0.470664     0.889682    Uiso  ? O
   O39        1.0     0.470664     0.066907     0.139682    Uiso  ? O
   O40        1.0     0.529336     0.933093     0.639682    Uiso  ? O
   O41        1.0     0.933093     0.529336     0.610318    Uiso  ? O
   O42        1.0     0.066907     0.470664     0.110318    Uiso  ? O
   O43        1.0     0.529336     0.066907     0.860318    Uiso  ? O
   O44        1.0     0.470664     0.933093     0.360318    Uiso  ? O
   O45        1.0     0.923677     0.387890     0.407261    Uiso  ? O
   O46        1.0     0.076323     0.612110     0.907261    Uiso  ? O
   O47        1.0     0.612110     0.923677     0.157261    Uiso  ? O
   O48        1.0     0.387890     0.076323     0.657261    Uiso  ? O
   O49        1.0     0.076323     0.387890     0.592739    Uiso  ? O
   O50        1.0     0.923677     0.612110     0.092739    Uiso  ? O
   O51        1.0     0.387890     0.923677     0.842739    Uiso  ? O
   O52        1.0     0.612110     0.076323     0.342739    Uiso  ? O
   O53        1.0     0.947064     0.408941     0.359694    Uiso  ? O
   O54        1.0     0.052936     0.591059     0.859694    Uiso  ? O
   O55        1.0     0.591059     0.947064     0.109694    Uiso  ? O
   O56        1.0     0.408941     0.052936     0.609694    Uiso  ? O
   O57        1.0     0.052936     0.408941     0.640306    Uiso  ? O
   O58        1.0     0.947064     0.591059     0.140306    Uiso  ? O
   O59        1.0     0.408941     0.947064     0.890306    Uiso  ? O
   O60        1.0     0.591059     0.052936     0.390306    Uiso  ? O
   O61        1.0     0.674138     0.476701     0.377819    Uiso  ? O
   O62        1.0     0.325862     0.523299     0.877819    Uiso  ? O
   O63        1.0     0.523299     0.674138     0.127819    Uiso  ? O
   O64        1.0     0.476701     0.325862     0.627819    Uiso  ? O
   O65        1.0     0.325862     0.476701     0.622181    Uiso  ? O
   O66        1.0     0.674138     0.523299     0.122181    Uiso  ? O
   O67        1.0     0.476701     0.674138     0.872181    Uiso  ? O
   O68        1.0     0.523299     0.325862     0.372181    Uiso  ? O
   O69        1.0     0.466336     0.533664     0.375000    Uiso  ? O
   O70        1.0     0.533664     0.466336     0.875000    Uiso  ? O
   O71        1.0     0.466336     0.466336     0.125000    Uiso  ? O
   O72        1.0     0.533664     0.533664     0.625000    Uiso  ? O
   O73        1.0     0.314806     0.632813     0.454687    Uiso  ? O
   O74        1.0     0.685194     0.367187     0.954687    Uiso  ? O
   O75        1.0     0.367187     0.314806     0.204687    Uiso  ? O
   O76        1.0     0.632813     0.685194     0.704687    Uiso  ? O
   O77        1.0     0.685194     0.632813     0.545313    Uiso  ? O
   O78        1.0     0.314806     0.367187     0.045313    Uiso  ? O
   O79        1.0     0.632813     0.314806     0.795313    Uiso  ? O
   O80        1.0     0.367187     0.685194     0.295313    Uiso  ? O
   O81        1.0     0.110616     0.568632     0.461427    Uiso  ? O
   O82        1.0     0.889384     0.431368     0.961427    Uiso  ? O
   O83        1.0     0.431368     0.110616     0.211427    Uiso  ? O
   O84        1.0     0.568632     0.889384     0.711427    Uiso  ? O
   O85        1.0     0.889384     0.568632     0.538573    Uiso  ? O
   O86        1.0     0.110616     0.431368     0.038573    Uiso  ? O
   O87        1.0     0.568632     0.110616     0.788573    Uiso  ? O
   O88        1.0     0.431368     0.889384     0.288573    Uiso  ? O
   O89        1.0     0.150484     0.756618     0.439431    Uiso  ? O
   O90        1.0     0.849516     0.243382     0.939431    Uiso  ? O
   O91        1.0     0.243382     0.150484     0.189431    Uiso  ? O
   O92        1.0     0.756618     0.849516     0.689431    Uiso  ? O
   O93        1.0     0.849516     0.756618     0.560569    Uiso  ? O
   O94        1.0     0.150484     0.243382     0.060569    Uiso  ? O
   O95        1.0     0.756618     0.150484     0.810569    Uiso  ? O
   O96        1.0     0.243382     0.849516     0.310569    Uiso  ? O
   O97        1.0     0.865159     0.016326     0.518217    Uiso  ? O
   O98        1.0     0.134841     0.983674     0.018217    Uiso  ? O
   O99        1.0     0.983674     0.865159     0.268217    Uiso  ? O
   O100       1.0     0.016326     0.134841     0.768217    Uiso  ? O
   O101       1.0     0.134841     0.016326     0.481783    Uiso  ? O
   O102       1.0     0.865159     0.983674     0.981783    Uiso  ? O
   O103       1.0     0.016326     0.865159     0.731783    Uiso  ? O
   O104       1.0     0.983674     0.134841     0.231783    Uiso  ? O
   O105       1.0     0.665678     0.846917     0.501544    Uiso  ? O
   O106       1.0     0.334322     0.153083     0.001544    Uiso  ? O
   O107       1.0     0.153083     0.665678     0.251544    Uiso  ? O
   O108       1.0     0.846917     0.334322     0.751544    Uiso  ? O
   O109       1.0     0.334322     0.846917     0.498456    Uiso  ? O
   O110       1.0     0.665678     0.153083     0.998456    Uiso  ? O
   O111       1.0     0.846917     0.665678     0.748456    Uiso  ? O
   O112       1.0     0.153083     0.334322     0.248456    Uiso  ? O
   N1         1.0     0.779777     0.260936     0.307670    Uiso  ? N
   N2         1.0     0.220223     0.739064     0.807670    Uiso  ? N
   N3         1.0     0.739064     0.779777     0.057670    Uiso  ? N
   N4         1.0     0.260936     0.220223     0.557670    Uiso  ? N
   N5         1.0     0.220223     0.260936     0.692330    Uiso  ? N
   N6         1.0     0.779777     0.739064     0.192330    Uiso  ? N
   N7         1.0     0.260936     0.779777     0.942330    Uiso  ? N
   N8         1.0     0.739064     0.220223     0.442330    Uiso  ? N
   N9         1.0     0.978938     0.021062     0.375000    Uiso  ? N
   N10        1.0     0.021062     0.978938     0.875000    Uiso  ? N
   N11        1.0     0.978938     0.978938     0.125000    Uiso  ? N
   N12        1.0     0.021062     0.021062     0.625000    Uiso  ? N
   N13        1.0     0.981105     0.443910     0.385552    Uiso  ? N
   N14        1.0     0.018895     0.556090     0.885552    Uiso  ? N
   N15        1.0     0.556090     0.981105     0.135552    Uiso  ? N
   N16        1.0     0.443910     0.018895     0.635552    Uiso  ? N
   N17        1.0     0.018895     0.443910     0.614448    Uiso  ? N
   N18        1.0     0.981105     0.556090     0.114448    Uiso  ? N
   N19        1.0     0.443910     0.981105     0.864448    Uiso  ? N
   N20        1.0     0.556090     0.018895     0.364448    Uiso  ? N
   N21        1.0     0.553160     0.446840     0.375000    Uiso  ? N
   N22        1.0     0.446840     0.553160     0.875000    Uiso  ? N
   N23        1.0     0.553160     0.553160     0.125000    Uiso  ? N
   N24        1.0     0.446840     0.446840     0.625000    Uiso  ? N
   N25        1.0     0.192757     0.654262     0.451660    Uiso  ? N
   N26        1.0     0.807243     0.345738     0.951660    Uiso  ? N
   N27        1.0     0.345738     0.192757     0.201660    Uiso  ? N
   N28        1.0     0.654262     0.807243     0.701660    Uiso  ? N
   N29        1.0     0.807243     0.654262     0.548340    Uiso  ? N
   N30        1.0     0.192757     0.345738     0.048340    Uiso  ? N
   N31        1.0     0.654262     0.192757     0.798340    Uiso  ? N
   N32        1.0     0.345738     0.807243     0.298340    Uiso  ? N
   N33        1.0     0.760490     0.318082     0.549924    Uiso  ? N
   N34        1.0     0.239510     0.681918     0.049924    Uiso  ? N
   N35        1.0     0.681918     0.760490     0.299924    Uiso  ? N
   N36        1.0     0.318082     0.239510     0.799924    Uiso  ? N
   N37        1.0     0.239510     0.318082     0.450076    Uiso  ? N
   N38        1.0     0.760490     0.681918     0.950076    Uiso  ? N
   N39        1.0     0.318082     0.760490     0.700076    Uiso  ? N
   N40        1.0     0.681918     0.239510     0.200076    Uiso  ? N
   N41        1.0     0.860590     0.685870     0.448817    Uiso  ? N
   N42        1.0     0.139410     0.314130     0.948817    Uiso  ? N
   N43        1.0     0.314130     0.860590     0.198817    Uiso  ? N
   N44        1.0     0.685870     0.139410     0.698817    Uiso  ? N
   N45        1.0     0.139410     0.685870     0.551183    Uiso  ? N
   N46        1.0     0.860590     0.314130     0.051183    Uiso  ? N
   N47        1.0     0.685870     0.860590     0.801183    Uiso  ? N
   N48        1.0     0.314130     0.139410     0.301183    Uiso  ? N
   H1         1.0     0.793579     0.951638     0.516444    Uiso  ? H
   H2         1.0     0.206421     0.048362     0.016444    Uiso  ? H
   H3         1.0     0.048362     0.793579     0.266444    Uiso  ? H
   H4         1.0     0.951638     0.206421     0.766444    Uiso  ? H
   H5         1.0     0.206421     0.951638     0.483556    Uiso  ? H
   H6         1.0     0.793579     0.048362     0.983556    Uiso  ? H
   H7         1.0     0.951638     0.793579     0.733556    Uiso  ? H
   H8         1.0     0.048362     0.206421     0.233556    Uiso  ? H
   H9         1.0     0.787269     0.415727     0.546747    Uiso  ? H
   H10        1.0     0.212731     0.584273     0.046747    Uiso  ? H
   H11        1.0     0.584273     0.787269     0.296747    Uiso  ? H
   H12        1.0     0.415727     0.212731     0.796747    Uiso  ? H
   H13        1.0     0.212731     0.415727     0.453253    Uiso  ? H
   H14        1.0     0.787269     0.584273     0.953253    Uiso  ? H
   H15        1.0     0.415727     0.787269     0.703253    Uiso  ? H
   H16        1.0     0.584273     0.212731     0.203253    Uiso  ? H
   H17        1.0     0.833582     0.312471     0.593078    Uiso  ? H
   H18        1.0     0.166418     0.687529     0.093078    Uiso  ? H
   H19        1.0     0.687529     0.833582     0.343078    Uiso  ? H
   H20        1.0     0.312471     0.166418     0.843078    Uiso  ? H
   H21        1.0     0.166418     0.312471     0.406922    Uiso  ? H
   H22        1.0     0.833582     0.687529     0.906922    Uiso  ? H
   H23        1.0     0.312471     0.833582     0.656922    Uiso  ? H
   H24        1.0     0.687529     0.166418     0.156922    Uiso  ? H
   H25        1.0     0.665907     0.361031     0.590134    Uiso  ? H
   H26        1.0     0.334093     0.638969     0.090134    Uiso  ? H
   H27        1.0     0.638969     0.665907     0.340134    Uiso  ? H
   H28        1.0     0.361031     0.334093     0.840134    Uiso  ? H
   H29        1.0     0.334093     0.361031     0.409866    Uiso  ? H
   H30        1.0     0.665907     0.638969     0.909866    Uiso  ? H
   H31        1.0     0.361031     0.665907     0.659866    Uiso  ? H
   H32        1.0     0.638969     0.334093     0.159866    Uiso  ? H
   H33        1.0     0.597457     0.142588     0.594737    Uiso  ? H
   H34        1.0     0.402543     0.857412     0.094737    Uiso  ? H
   H35        1.0     0.857412     0.597457     0.344737    Uiso  ? H
   H36        1.0     0.142588     0.402543     0.844737    Uiso  ? H
   H37        1.0     0.402543     0.142588     0.405263    Uiso  ? H
   H38        1.0     0.597457     0.857412     0.905263    Uiso  ? H
   H39        1.0     0.142588     0.597457     0.655263    Uiso  ? H
   H40        1.0     0.857412     0.402543     0.155263    Uiso  ? H
   H41        1.0     0.763598     0.099280     0.601963    Uiso  ? H
   H42        1.0     0.236402     0.900720     0.101963    Uiso  ? H
   H43        1.0     0.900720     0.763598     0.351963    Uiso  ? H
   H44        1.0     0.099280     0.236402     0.851963    Uiso  ? H
   H45        1.0     0.236402     0.099280     0.398037    Uiso  ? H
   H46        1.0     0.763598     0.900720     0.898037    Uiso  ? H
   H47        1.0     0.099280     0.763598     0.648037    Uiso  ? H
   H48        1.0     0.900720     0.236402     0.148037    Uiso  ? H
   H49        1.0     0.680382     0.972294     0.559138    Uiso  ? H
   H50        1.0     0.319618     0.027706     0.059138    Uiso  ? H
   H51        1.0     0.027706     0.680382     0.309138    Uiso  ? H
   H52        1.0     0.972294     0.319618     0.809138    Uiso  ? H
   H53        1.0     0.319618     0.972294     0.440862    Uiso  ? H
   H54        1.0     0.680382     0.027706     0.940862    Uiso  ? H
   H55        1.0     0.972294     0.680382     0.690862    Uiso  ? H
   H56        1.0     0.027706     0.319618     0.190862    Uiso  ? H
   H57        1.0     0.617148     0.097909     0.512963    Uiso  ? H
   H58        1.0     0.382852     0.902091     0.012963    Uiso  ? H
   H59        1.0     0.902091     0.617148     0.262963    Uiso  ? H
   H60        1.0     0.097909     0.382852     0.762963    Uiso  ? H
   H61        1.0     0.382852     0.097909     0.487037    Uiso  ? H
   H62        1.0     0.617148     0.902091     0.987037    Uiso  ? H
   H63        1.0     0.097909     0.617148     0.737037    Uiso  ? H
   H64        1.0     0.902091     0.382852     0.237037    Uiso  ? H
   H65        1.0     0.506026     0.124588     0.542297    Uiso  ? H
   H66        1.0     0.493974     0.875412     0.042297    Uiso  ? H
   H67        1.0     0.875412     0.506026     0.292297    Uiso  ? H
   H68        1.0     0.124588     0.493974     0.792297    Uiso  ? H
   H69        1.0     0.493974     0.124588     0.457703    Uiso  ? H
   H70        1.0     0.506026     0.875412     0.957703    Uiso  ? H
   H71        1.0     0.124588     0.506026     0.707703    Uiso  ? H
   H72        1.0     0.875412     0.493974     0.207703    Uiso  ? H
   H73        1.0     0.557502     0.347890     0.544382    Uiso  ? H
   H74        1.0     0.442498     0.652110     0.044382    Uiso  ? H
   H75        1.0     0.652110     0.557502     0.294382    Uiso  ? H
   H76        1.0     0.347890     0.442498     0.794382    Uiso  ? H
   H77        1.0     0.442498     0.347890     0.455618    Uiso  ? H
   H78        1.0     0.557502     0.652110     0.955618    Uiso  ? H
   H79        1.0     0.347890     0.557502     0.705618    Uiso  ? H
   H80        1.0     0.652110     0.442498     0.205618    Uiso  ? H
   H81        1.0     0.647922     0.325298     0.510974    Uiso  ? H
   H82        1.0     0.352078     0.674702     0.010974    Uiso  ? H
   H83        1.0     0.674702     0.647922     0.260974    Uiso  ? H
   H84        1.0     0.325298     0.352078     0.760974    Uiso  ? H
   H85        1.0     0.352078     0.325298     0.489026    Uiso  ? H
   H86        1.0     0.647922     0.674702     0.989026    Uiso  ? H
   H87        1.0     0.325298     0.647922     0.739026    Uiso  ? H
   H88        1.0     0.674702     0.352078     0.239026    Uiso  ? H
   H89        1.0     0.961661     0.271006     0.549370    Uiso  ? H
   H90        1.0     0.038339     0.728994     0.049370    Uiso  ? H
   H91        1.0     0.728994     0.961661     0.299370    Uiso  ? H
   H92        1.0     0.271006     0.038339     0.799370    Uiso  ? H
   H93        1.0     0.038339     0.271006     0.450630    Uiso  ? H
   H94        1.0     0.961661     0.728994     0.950630    Uiso  ? H
   H95        1.0     0.271006     0.961661     0.700630    Uiso  ? H
   H96        1.0     0.728994     0.038339     0.200630    Uiso  ? H
   H97        1.0     0.878995     0.252109     0.514626    Uiso  ? H
   H98        1.0     0.121005     0.747891     0.014626    Uiso  ? H
   H99        1.0     0.747891     0.878995     0.264626    Uiso  ? H
   H100       1.0     0.252109     0.121005     0.764626    Uiso  ? H
   H101       1.0     0.121005     0.252109     0.485374    Uiso  ? H
   H102       1.0     0.878995     0.747891     0.985374    Uiso  ? H
   H103       1.0     0.252109     0.878995     0.735374    Uiso  ? H
   H104       1.0     0.747891     0.121005     0.235374    Uiso  ? H
   H105       1.0     0.913803     0.053687     0.561541    Uiso  ? H
   H106       1.0     0.086197     0.946313     0.061541    Uiso  ? H
   H107       1.0     0.946313     0.913803     0.311541    Uiso  ? H
   H108       1.0     0.053687     0.086197     0.811541    Uiso  ? H
   H109       1.0     0.086197     0.053687     0.438459    Uiso  ? H
   H110       1.0     0.913803     0.946313     0.938459    Uiso  ? H
   H111       1.0     0.053687     0.913803     0.688459    Uiso  ? H
   H112       1.0     0.946313     0.086197     0.188459    Uiso  ? H
   H113       1.0     0.660331     0.758307     0.509903    Uiso  ? H
   H114       1.0     0.339669     0.241693     0.009903    Uiso  ? H
   H115       1.0     0.241693     0.660331     0.259903    Uiso  ? H
   H116       1.0     0.758307     0.339669     0.759903    Uiso  ? H
   H117       1.0     0.339669     0.758307     0.490097    Uiso  ? H
   H118       1.0     0.660331     0.241693     0.990097    Uiso  ? H
   H119       1.0     0.758307     0.660331     0.740097    Uiso  ? H
   H120       1.0     0.241693     0.339669     0.240097    Uiso  ? H
   H121       1.0     0.958978     0.657280     0.448155    Uiso  ? H
   H122       1.0     0.041022     0.342720     0.948155    Uiso  ? H
   H123       1.0     0.342720     0.958978     0.198155    Uiso  ? H
   H124       1.0     0.657280     0.041022     0.698155    Uiso  ? H
   H125       1.0     0.041022     0.657280     0.551845    Uiso  ? H
   H126       1.0     0.958978     0.342720     0.051845    Uiso  ? H
   H127       1.0     0.657280     0.958978     0.801845    Uiso  ? H
   H128       1.0     0.342720     0.041022     0.301845    Uiso  ? H
   H129       1.0     0.904616     0.886587     0.455657    Uiso  ? H
   H130       1.0     0.095384     0.113413     0.955657    Uiso  ? H
   H131       1.0     0.113413     0.904616     0.205657    Uiso  ? H
   H132       1.0     0.886587     0.095384     0.705657    Uiso  ? H
   H133       1.0     0.095384     0.886587     0.544343    Uiso  ? H
   H134       1.0     0.904616     0.113413     0.044343    Uiso  ? H
   H135       1.0     0.886587     0.904616     0.794343    Uiso  ? H
   H136       1.0     0.113413     0.095384     0.294343    Uiso  ? H
   H137       1.0     0.897163     0.790856     0.488119    Uiso  ? H
   H138       1.0     0.102837     0.209144     0.988119    Uiso  ? H
   H139       1.0     0.209144     0.897163     0.238119    Uiso  ? H
   H140       1.0     0.790856     0.102837     0.738119    Uiso  ? H
   H141       1.0     0.102837     0.790856     0.511881    Uiso  ? H
   H142       1.0     0.897163     0.209144     0.011881    Uiso  ? H
   H143       1.0     0.790856     0.897163     0.761881    Uiso  ? H
   H144       1.0     0.209144     0.102837     0.261881    Uiso  ? H
   H145       1.0     0.687312     0.945699     0.463603    Uiso  ? H
   H146       1.0     0.312688     0.054301     0.963603    Uiso  ? H
   H147       1.0     0.054301     0.687312     0.213603    Uiso  ? H
   H148       1.0     0.945699     0.312688     0.713603    Uiso  ? H
   H149       1.0     0.312688     0.945699     0.536397    Uiso  ? H
   H150       1.0     0.687312     0.054301     0.036397    Uiso  ? H
   H151       1.0     0.945699     0.687312     0.786397    Uiso  ? H
   H152       1.0     0.054301     0.312688     0.286397    Uiso  ? H
   H153       1.0     0.515643     0.778583     0.453768    Uiso  ? H
   H154       1.0     0.484357     0.221417     0.953768    Uiso  ? H
   H155       1.0     0.221417     0.515643     0.203768    Uiso  ? H
   H156       1.0     0.778583     0.484357     0.703768    Uiso  ? H
   H157       1.0     0.484357     0.778583     0.546232    Uiso  ? H
   H158       1.0     0.515643     0.221417     0.046232    Uiso  ? H
   H159       1.0     0.778583     0.515643     0.796232    Uiso  ? H
   H160       1.0     0.221417     0.484357     0.296232    Uiso  ? H
   H161       1.0     0.597132     0.593269     0.485074    Uiso  ? H
   H162       1.0     0.402868     0.406731     0.985074    Uiso  ? H
   H163       1.0     0.406731     0.597132     0.235074    Uiso  ? H
   H164       1.0     0.593269     0.402868     0.735074    Uiso  ? H
   H165       1.0     0.402868     0.593269     0.514926    Uiso  ? H
   H166       1.0     0.597132     0.406731     0.014926    Uiso  ? H
   H167       1.0     0.593269     0.597132     0.764926    Uiso  ? H
   H168       1.0     0.406731     0.402868     0.264926    Uiso  ? H
   H169       1.0     0.584762     0.541101     0.448261    Uiso  ? H
   H170       1.0     0.415238     0.458899     0.948261    Uiso  ? H
   H171       1.0     0.458899     0.584762     0.198261    Uiso  ? H
   H172       1.0     0.541101     0.415238     0.698261    Uiso  ? H
   H173       1.0     0.415238     0.541101     0.551739    Uiso  ? H
   H174       1.0     0.584762     0.458899     0.051739    Uiso  ? H
   H175       1.0     0.541101     0.584762     0.801739    Uiso  ? H
   H176       1.0     0.458899     0.415238     0.301739    Uiso  ? H
   H177       1.0     0.826512     0.562416     0.485065    Uiso  ? H
   H178       1.0     0.173488     0.437584     0.985065    Uiso  ? H
   H179       1.0     0.437584     0.826512     0.235065    Uiso  ? H
   H180       1.0     0.562416     0.173488     0.735065    Uiso  ? H
   H181       1.0     0.173488     0.562416     0.514935    Uiso  ? H
   H182       1.0     0.826512     0.437584     0.014935    Uiso  ? H
   H183       1.0     0.562416     0.826512     0.764935    Uiso  ? H
   H184       1.0     0.437584     0.173488     0.264935    Uiso  ? H
   H185       1.0     0.807939     0.486594     0.449969    Uiso  ? H
   H186       1.0     0.192061     0.513406     0.949969    Uiso  ? H
   H187       1.0     0.513406     0.807939     0.199969    Uiso  ? H
   H188       1.0     0.486594     0.192061     0.699969    Uiso  ? H
   H189       1.0     0.192061     0.486594     0.550031    Uiso  ? H
   H190       1.0     0.807939     0.513406     0.050031    Uiso  ? H
   H191       1.0     0.486594     0.807939     0.800031    Uiso  ? H
   H192       1.0     0.513406     0.192061     0.300031    Uiso  ? H
   H193       1.0     0.876720     0.783270     0.408091    Uiso  ? H
   H194       1.0     0.123280     0.216730     0.908091    Uiso  ? H
   H195       1.0     0.216730     0.876720     0.158091    Uiso  ? H
   H196       1.0     0.783270     0.123280     0.658091    Uiso  ? H
   H197       1.0     0.123280     0.783270     0.591909    Uiso  ? H
   H198       1.0     0.876720     0.216730     0.091909    Uiso  ? H
   H199       1.0     0.783270     0.876720     0.841909    Uiso  ? H
   H200       1.0     0.216730     0.123280     0.341909    Uiso  ? H
   H201       1.0     0.816677     0.618686     0.406301    Uiso  ? H
   H202       1.0     0.183323     0.381314     0.906301    Uiso  ? H
   H203       1.0     0.381314     0.816677     0.156301    Uiso  ? H
   H204       1.0     0.618686     0.183323     0.656301    Uiso  ? H
   H205       1.0     0.183323     0.618686     0.593699    Uiso  ? H
   H206       1.0     0.816677     0.381314     0.093699    Uiso  ? H
   H207       1.0     0.618686     0.816677     0.843699    Uiso  ? H
   H208       1.0     0.381314     0.183323     0.343699    Uiso  ? H
   H209       1.0     0.605075     0.701299     0.405970    Uiso  ? H
   H210       1.0     0.394925     0.298701     0.905970    Uiso  ? H
   H211       1.0     0.298701     0.605075     0.155970    Uiso  ? H
   H212       1.0     0.701299     0.394925     0.655970    Uiso  ? H
   H213       1.0     0.394925     0.701299     0.594030    Uiso  ? H
   H214       1.0     0.605075     0.298701     0.094030    Uiso  ? H
   H215       1.0     0.701299     0.605075     0.844030    Uiso  ? H
   H216       1.0     0.298701     0.394925     0.344030    Uiso  ? H
   H217       1.0     0.660782     0.863476     0.412840    Uiso  ? H
   H218       1.0     0.339218     0.136524     0.912840    Uiso  ? H
   H219       1.0     0.136524     0.660782     0.162840    Uiso  ? H
   H220       1.0     0.863476     0.339218     0.662840    Uiso  ? H
   H221       1.0     0.339218     0.863476     0.587160    Uiso  ? H
   H222       1.0     0.660782     0.136524     0.087160    Uiso  ? H
   H223       1.0     0.863476     0.660782     0.837160    Uiso  ? H
   H224       1.0     0.136524     0.339218     0.337160    Uiso  ? H
   C1         1.0     0.740172     0.291522     0.582219    Uiso  ? C
   C2         1.0     0.259828     0.708478     0.082219    Uiso  ? C
   C3         1.0     0.708478     0.740172     0.332219    Uiso  ? C
   C4         1.0     0.291522     0.259828     0.832219    Uiso  ? C
   C5         1.0     0.259828     0.291522     0.417781    Uiso  ? C
   C6         1.0     0.740172     0.708478     0.917781    Uiso  ? C
   C7         1.0     0.291522     0.740172     0.667781    Uiso  ? C
   C8         1.0     0.708478     0.259828     0.167781    Uiso  ? C
   C9         1.0     0.697807     0.147494     0.586190    Uiso  ? C
   C10        1.0     0.302193     0.852506     0.086190    Uiso  ? C
   C11        1.0     0.852506     0.697807     0.336190    Uiso  ? C
   C12        1.0     0.147494     0.302193     0.836190    Uiso  ? C
   C13        1.0     0.302193     0.147494     0.413810    Uiso  ? C
   C14        1.0     0.697807     0.852506     0.913810    Uiso  ? C
   C15        1.0     0.147494     0.697807     0.663810    Uiso  ? C
   C16        1.0     0.852506     0.302193     0.163810    Uiso  ? C
   C17        1.0     0.703955     0.076962     0.556430    Uiso  ? C
   C18        1.0     0.296045     0.923038     0.056430    Uiso  ? C
   C19        1.0     0.923038     0.703955     0.306430    Uiso  ? C
   C20        1.0     0.076962     0.296045     0.806430    Uiso  ? C
   C21        1.0     0.296045     0.076962     0.443570    Uiso  ? C
   C22        1.0     0.703955     0.923038     0.943570    Uiso  ? C
   C23        1.0     0.076962     0.703955     0.693570    Uiso  ? C
   C24        1.0     0.923038     0.296045     0.193570    Uiso  ? C
   C25        1.0     0.607152     0.141493     0.534892    Uiso  ? C
   C26        1.0     0.392848     0.858507     0.034892    Uiso  ? C
   C27        1.0     0.858507     0.607152     0.284892    Uiso  ? C
   C28        1.0     0.141493     0.392848     0.784892    Uiso  ? C
   C29        1.0     0.392848     0.141493     0.465108    Uiso  ? C
   C30        1.0     0.607152     0.858507     0.965108    Uiso  ? C
   C31        1.0     0.141493     0.607152     0.715108    Uiso  ? C
   C32        1.0     0.858507     0.392848     0.215108    Uiso  ? C
   C33        1.0     0.634623     0.290184     0.533558    Uiso  ? C
   C34        1.0     0.365377     0.709816     0.033558    Uiso  ? C
   C35        1.0     0.709816     0.634623     0.283558    Uiso  ? C
   C36        1.0     0.290184     0.365377     0.783558    Uiso  ? C
   C37        1.0     0.365377     0.290184     0.466442    Uiso  ? C
   C38        1.0     0.634623     0.709816     0.966442    Uiso  ? C
   C39        1.0     0.290184     0.634623     0.716442    Uiso  ? C
   C40        1.0     0.709816     0.365377     0.216442    Uiso  ? C
   C41        1.0     0.872510     0.235558     0.538420    Uiso  ? C
   C42        1.0     0.127490     0.764442     0.038420    Uiso  ? C
   C43        1.0     0.764442     0.872510     0.288420    Uiso  ? C
   C44        1.0     0.235558     0.127490     0.788420    Uiso  ? C
   C45        1.0     0.127490     0.235558     0.461580    Uiso  ? C
   C46        1.0     0.872510     0.764442     0.961580    Uiso  ? C
   C47        1.0     0.235558     0.872510     0.711580    Uiso  ? C
   C48        1.0     0.764442     0.127490     0.211580    Uiso  ? C
   C49        1.0     0.844674     0.088628     0.544508    Uiso  ? C
   C50        1.0     0.155326     0.911372     0.044508    Uiso  ? C
   C51        1.0     0.911372     0.844674     0.294508    Uiso  ? C
   C52        1.0     0.088628     0.155326     0.794508    Uiso  ? C
   C53        1.0     0.155326     0.088628     0.455492    Uiso  ? C
   C54        1.0     0.844674     0.911372     0.955492    Uiso  ? C
   C55        1.0     0.088628     0.844674     0.705492    Uiso  ? C
   C56        1.0     0.911372     0.155326     0.205492    Uiso  ? C
   C57        1.0     0.849505     0.808826     0.466863    Uiso  ? C
   C58        1.0     0.150495     0.191174     0.966863    Uiso  ? C
   C59        1.0     0.191174     0.849505     0.216863    Uiso  ? C
   C60        1.0     0.808826     0.150495     0.716863    Uiso  ? C
   C61        1.0     0.150495     0.808826     0.533137    Uiso  ? C
   C62        1.0     0.849505     0.191174     0.033137    Uiso  ? C
   C63        1.0     0.808826     0.849505     0.783137    Uiso  ? C
   C64        1.0     0.191174     0.150495     0.283137    Uiso  ? C
   C65        1.0     0.702532     0.844194     0.471037    Uiso  ? C
   C66        1.0     0.297468     0.155806     0.971037    Uiso  ? C
   C67        1.0     0.155806     0.702532     0.221037    Uiso  ? C
   C68        1.0     0.844194     0.297468     0.721037    Uiso  ? C
   C69        1.0     0.297468     0.844194     0.528963    Uiso  ? C
   C70        1.0     0.702532     0.155806     0.028963    Uiso  ? C
   C71        1.0     0.844194     0.702532     0.778963    Uiso  ? C
   C72        1.0     0.155806     0.297468     0.278963    Uiso  ? C
   C73        1.0     0.619359     0.750353     0.452325    Uiso  ? C
   C74        1.0     0.380641     0.249647     0.952325    Uiso  ? C
   C75        1.0     0.249647     0.619359     0.202325    Uiso  ? C
   C76        1.0     0.750353     0.380641     0.702325    Uiso  ? C
   C77        1.0     0.380641     0.750353     0.547675    Uiso  ? C
   C78        1.0     0.619359     0.249647     0.047675    Uiso  ? C
   C79        1.0     0.750353     0.619359     0.797675    Uiso  ? C
   C80        1.0     0.249647     0.380641     0.297675    Uiso  ? C
   C81        1.0     0.638102     0.608051     0.462936    Uiso  ? C
   C82        1.0     0.361898     0.391948     0.962936    Uiso  ? C
   C83        1.0     0.391948     0.638102     0.212936    Uiso  ? C
   C84        1.0     0.608051     0.361898     0.712936    Uiso  ? C
   C85        1.0     0.361898     0.608051     0.537064    Uiso  ? C
   C86        1.0     0.638102     0.391948     0.037064    Uiso  ? C
   C87        1.0     0.608051     0.638102     0.787064    Uiso  ? C
   C88        1.0     0.391948     0.361898     0.287064    Uiso  ? C
   C89        1.0     0.785650     0.574629     0.462873    Uiso  ? C
   C90        1.0     0.214350     0.425371     0.962873    Uiso  ? C
   C91        1.0     0.425371     0.785650     0.212873    Uiso  ? C
   C92        1.0     0.574629     0.214350     0.712873    Uiso  ? C
   C93        1.0     0.214350     0.574629     0.537127    Uiso  ? C
   C94        1.0     0.785650     0.425371     0.037127    Uiso  ? C
   C95        1.0     0.574629     0.785650     0.787127    Uiso  ? C
   C96        1.0     0.425371     0.214350     0.287127    Uiso  ? C
   C97        1.0     0.810320     0.711638     0.418248    Uiso  ? C
   C98        1.0     0.189680     0.288362     0.918248    Uiso  ? C
   C99        1.0     0.288362     0.810320     0.168248    Uiso  ? C
   C100       1.0     0.711638     0.189680     0.668248    Uiso  ? C
   C101       1.0     0.189680     0.711638     0.581752    Uiso  ? C
   C102       1.0     0.810320     0.288362     0.081752    Uiso  ? C
   C103       1.0     0.711638     0.810320     0.831752    Uiso  ? C
   C104       1.0     0.288362     0.189680     0.331752    Uiso  ? C
   C105       1.0     0.667638     0.761270     0.420346    Uiso  ? C
   C106       1.0     0.332362     0.238730     0.920346    Uiso  ? C
   C107       1.0     0.238730     0.667638     0.170346    Uiso  ? C
   C108       1.0     0.761270     0.332362     0.670346    Uiso  ? C
   C109       1.0     0.332362     0.761270     0.579654    Uiso  ? C
   C110       1.0     0.667638     0.238730     0.079654    Uiso  ? C
   C111       1.0     0.761270     0.667638     0.829654    Uiso  ? C
   C112       1.0     0.238730     0.332362     0.329654    Uiso  ? C
