data_mo_3oq_dycs_0m_a
_audit_creation_date               2025-08-22
_audit_creation_method
;
Olex2 1.5
(compiled 2025.05.31 svn.r86d253d1 for OlexSys, GUI svn.r7254)
;
_shelx_SHELXL_version_number       '2019/3'
_audit_contact_author_address      ?
_audit_contact_author_email        ?
_audit_contact_author_name         ''
_audit_contact_author_phone        ?
_publ_contact_author_id_orcid      ?
_publ_section_references
;
Dolomanov, O.V., Bourhis, L.J., Gildea, R.J, Howard, J.A.K. & Puschmann, H.
 (2009), J. Appl. Cryst. 42, 339-341.

Sheldrick, G.M. (2015). Acta Cryst. C71, 3-8.
;
_chemical_name_common              ?
_chemical_name_systematic          ?
_chemical_formula_moiety           'Cs Dy N8 O24, 4(C7 H12 N O)'
_chemical_formula_sum              'C28 H48 Cs Dy N12 O28'
_chemical_formula_weight           1296.19
_chemical_absolute_configuration   ?
_chemical_melting_point            ?
loop_
  _atom_type_symbol
  _atom_type_description
  _atom_type_scat_dispersion_real
  _atom_type_scat_dispersion_imag
  _atom_type_scat_source
 'C' 'C' 0.0033 0.0016 'International Tables Vol C Tables 4.2.6.8 and 6.1.1.4'
 'H' 'H' 0.0000 0.0000 'International Tables Vol C Tables 4.2.6.8 and 6.1.1.4'
 'Cs' 'Cs' -0.3680 2.1192
 'International Tables Vol C Tables 4.2.6.8 and 6.1.1.4'
 'Dy' 'Dy' -0.1892 4.4098
 'International Tables Vol C Tables 4.2.6.8 and 6.1.1.4'
 'N' 'N' 0.0061 0.0033 'International Tables Vol C Tables 4.2.6.8 and 6.1.1.4'
 'O' 'O' 0.0106 0.0060 'International Tables Vol C Tables 4.2.6.8 and 6.1.1.4'

_shelx_space_group_comment
;
The symmetry employed for this shelxl refinement is uniquely defined
by the following loop, which should always be used as a source of
symmetry information in preference to the above space-group names.
They are only intended as comments.
;
_space_group_crystal_system        'triclinic'
_space_group_IT_number             1
_space_group_name_H-M_alt          'P 1'
_space_group_name_Hall             'P 1'
loop_
  _space_group_symop_operation_xyz
 'x, y, z'

_cell_length_a                     10.016(3)
_cell_length_b                     10.067(3)
_cell_length_c                     12.494(4)
_cell_angle_alpha                  67.255(6)
_cell_angle_beta                   88.808(7)
_cell_angle_gamma                  89.343(6)
_cell_volume                       1161.5(5)
_cell_formula_units_Z              1
_cell_measurement_reflns_used      9059
_cell_measurement_temperature      291.00
_cell_measurement_theta_max        26.36
_cell_measurement_theta_min        2.73
_shelx_estimated_absorpt_T_max     0.789
_shelx_estimated_absorpt_T_min     0.772
_exptl_absorpt_coefficient_mu      2.486
_exptl_absorpt_correction_T_max    0.7454
_exptl_absorpt_correction_T_min    0.5779
_exptl_absorpt_correction_type     none
_exptl_absorpt_process_details
;
SADABS-2016/2 (Bruker,2016/2) was used for absorption correction.
wR2(int) was 0.1290 before and 0.0712 after correction.
The Ratio of minimum to maximum transmission is 0.7753.
The \l/2 correction factor is Not present.
;
_exptl_absorpt_special_details     ?
_exptl_crystal_colour              colourless
_exptl_crystal_colour_primary      colourless
_exptl_crystal_density_diffrn      1.853
_exptl_crystal_density_meas        ?
_exptl_crystal_density_method      ?
_exptl_crystal_description         block
_exptl_crystal_F_000               645
_exptl_crystal_size_max            0.11
_exptl_crystal_size_mid            0.1
_exptl_crystal_size_min            0.1
_exptl_transmission_factor_max     ?
_exptl_transmission_factor_min     ?
_diffrn_reflns_av_R_equivalents    0.0754
_diffrn_reflns_av_unetI/netI       0.0730
_diffrn_reflns_Laue_measured_fraction_full  0.999
_diffrn_reflns_Laue_measured_fraction_max  0.997
_diffrn_reflns_limit_h_max         12
_diffrn_reflns_limit_h_min         -12
_diffrn_reflns_limit_k_max         12
_diffrn_reflns_limit_k_min         -12
_diffrn_reflns_limit_l_max         15
_diffrn_reflns_limit_l_min         -15
_diffrn_reflns_number              29093
_diffrn_reflns_point_group_measured_fraction_full  0.939
_diffrn_reflns_point_group_measured_fraction_max  0.928
_diffrn_reflns_theta_full          25.242
_diffrn_reflns_theta_max           26.425
_diffrn_reflns_theta_min           2.034
_diffrn_ambient_temperature        291.00
_diffrn_detector_area_resol_mean   ?
_diffrn_measured_fraction_theta_full  0.999
_diffrn_measured_fraction_theta_max  0.997
_diffrn_measurement_device_type    'Bruker APEX-II CCD'
_diffrn_measurement_method         '\f and \w scans'
_diffrn_radiation_type             MoK\a
_diffrn_radiation_wavelength       0.71073
_diffrn_source                     ?
_reflns_Friedel_coverage           0.861
_reflns_Friedel_fraction_full      0.880
_reflns_Friedel_fraction_max       0.859
_reflns_number_gt                  7566
_reflns_number_total               8858
_reflns_special_details
;
 Reflections were merged by SHELXL according to the crystal
 class for the calculation of statistics and refinement.
 
 _reflns_Friedel_fraction is defined as the number of unique
 Friedel pairs measured divided by the number that would be
 possible theoretically, ignoring centric projections and
 systematic absences. Completness statistics refer to single and
 composite reflections containing twin component 1 only.
;
_reflns_threshold_expression       'I > 2\s(I)'
_computing_cell_refinement         'SAINT V8.40B (?, 2016)'
_computing_data_collection         ?
_computing_data_reduction          'SAINT V8.40B (?, 2016)'
_computing_molecular_graphics      'Olex2 1.5 (Dolomanov et al., 2009)'
_computing_publication_material    'Olex2 1.5 (Dolomanov et al., 2009)'
_computing_structure_refinement    'SHELXL 2019/3 (Sheldrick, 2015)'
_computing_structure_solution      'SHELXT 2018/2 (Sheldrick, 2018)'
_refine_diff_density_max           2.114
_refine_diff_density_min           -0.795
_refine_diff_density_rms           0.107
_refine_ls_abs_structure_details
;
 Refined as an inversion twin.
;
_refine_ls_abs_structure_Flack     0.503(12)
_refine_ls_extinction_coef         .
_refine_ls_extinction_method       none
_refine_ls_goodness_of_fit_ref     1.043
_refine_ls_hydrogen_treatment      constr
_refine_ls_matrix_type             full
_refine_ls_number_parameters       741
_refine_ls_number_reflns           8858
_refine_ls_number_restraints       727
_refine_ls_R_factor_all            0.0550
_refine_ls_R_factor_gt             0.0409
_refine_ls_restrained_S_all        1.079
_refine_ls_shift/su_max            0.002
_refine_ls_shift/su_mean           0.000
_refine_ls_structure_factor_coef   Fsqd
_refine_ls_weighting_details      
 'w=1/[\s^2^(Fo^2^)+(0.0359P)^2^+1.3451P] where P=(Fo^2^+2Fc^2^)/3'
_refine_ls_weighting_scheme        calc
_refine_ls_wR_factor_gt            0.0907
_refine_ls_wR_factor_ref           0.1006
_refine_special_details
;
 Refined as a 2-component inversion twin.
;
_olex2_refinement_description
;
1. Twinned data refinement
 Scales: 0.49729
 0.50271
2. Restrained distances
 C20-C15 = C8-C28 = C7-C24 = C28-C24 = C7-C17 = N7-C17 = N7-C8 = N7-C20
 1.5 with sigma of 0.01
 C18-C10 = N12-C9 = N12-C10 = N12-C1 = C16-C1 = C5-C26 = C26-C16 = C26-C18 =
 C9-C5
 1.5 with sigma of 0.01
 C22-C12 = C22-C14 = C6-C12 = C6-C4
 1.5 with sigma of 0.01
 N10-C4
 1.5 with sigma of 0.01
 O39-C27
 1.2 with sigma of 0.01
 O30-C19
 1.2 with sigma of 0.01
 C27-C23
 1.5 with sigma of 0.01
 O31_$2-O39_$3
 2.5 with sigma of 0.01
3. Rigid bond restraints
 C19, O30
 with sigma for 1-2 distances of 0.01 and sigma for 1-3 distances of 0.02
 O18, N8
 with sigma for 1-2 distances of 0.002 and sigma for 1-3 distances of 0.004
4. Uiso/Uaniso restraints and constraints
Dy1 \\sim Cs1 \\sim O1 \\sim O2 \\sim O3 \\sim O4 \\sim O5 \\sim O6 \\sim O7
\\sim O8 \\sim O9 \\sim O10 \\sim O11 \\sim O12 \\sim O13 \\sim O14 \\sim O15
\\sim O16 \\sim O17 \\sim O18 \\sim O19 \\sim O20 \\sim O21 \\sim O22 \\sim O23
\\sim O24 \\sim O25 \\sim O26 \\sim O27 \\sim O28 \\sim O29 \\sim O32 \\sim O33
\\sim O35 \\sim O36 \\sim O37 \\sim O38 \\sim O40 \\sim N1 \\sim N2 \\sim N3
\\sim N4 \\sim N5 \\sim N6 \\sim N8 \\sim N9: within 2A with sigma of 0.01 and
sigma for terminal atoms of 0.02 within 2A
O30 \\sim N10 \\sim C2 \\sim C4 \\sim C6 \\sim C12 \\sim C14 \\sim C19 \\sim
C22: within 2A with sigma of 0.01 and sigma for terminal atoms of 0.02 within 2A
O34 \\sim N12 \\sim C1 \\sim C5 \\sim C9 \\sim C10 \\sim C16 \\sim C18 \\sim
C26: within 2A with sigma of 0.01 and sigma for terminal atoms of 0.02 within 2A
O31 \\sim N7 \\sim C7 \\sim C8 \\sim C15 \\sim C17 \\sim C20 \\sim C24 \\sim
C28: within 2A with sigma of 0.01 and sigma for terminal atoms of 0.02 within 2A
O39 \\sim N11 \\sim C3 \\sim C11 \\sim C13 \\sim C21 \\sim C23 \\sim C25 \\sim
C27: within 2A with sigma of 0.01 and sigma for terminal atoms of 0.02 within 2A
Uanis(O18) \\sim Ueq: with sigma of 0.004 and sigma for terminal atoms of 0.008
Uanis(O28) \\sim Ueq: with sigma of 0.004 and sigma for terminal atoms of 0.008
Uanis(O24) \\sim Ueq: with sigma of 0.002 and sigma for terminal atoms of 0.004
5. Others
 Sof(O2)=Sof(O9)=Sof(O13)=Sof(O19)=Sof(O21)=Sof(O22)=Sof(O23)=Sof(O25)=
 Sof(O26)=Sof(O27)=Sof(O37)=Sof(O38)=1-FVAR(1)
 Sof(O3)=Sof(O4)=Sof(O5)=Sof(O6)=Sof(O7)=Sof(O11)=Sof(O15)=Sof(O17)=Sof(O29)=
 Sof(O32)=Sof(O33)=Sof(O40)=FVAR(1)
6.a Ternary CH refined with riding coordinates:
 N10(H10), C12(H12), N7(H7), C24(H24), N12(H12A), C26(H26), N11(H11), C23(H23)
6.b Secondary CH2 refined with riding coordinates:
 C2(H2A,H2B), C4(H4A,H4B), C6(H6A,H6B), C14(H14A,H14B), C22(H22A,H22B), C7(H7A,
 H7B), C8(H8A,H8B), C15(H15A,H15B), C17(H17A,H17B), C20(H20A,H20B), C1(H1A,H1B),
  C5(H5A,H5B), C9(H9A,H9B), C10(H10A,H10B), C18(H18A,H18B), C3(H3A,H3B),
 C11(H11A,H11B), C13(H13A,H13B), C21(H21A,H21B), C25(H25A,H25B)
;
_atom_sites_solution_hydrogens     geom
_atom_sites_solution_primary       ?
_atom_sites_solution_secondary     ?
loop_
  _atom_site_label
  _atom_site_type_symbol
  _atom_site_fract_x
  _atom_site_fract_y
  _atom_site_fract_z
  _atom_site_U_iso_or_equiv
  _atom_site_adp_type
  _atom_site_occupancy
  _atom_site_site_symmetry_order
  _atom_site_calc_flag
  _atom_site_refinement_flags_posn
  _atom_site_refinement_flags_adp
  _atom_site_refinement_flags_occupancy
  _atom_site_disorder_assembly
  _atom_site_disorder_group
 Dy1 Dy 0.04619(3) 0.47851(3) 0.50269(3) 0.02717(4) Uani 1 1 d . . . . .
 Cs1 Cs 0.54656(10) 0.97845(10) 0.50173(9) 0.05149(8) Uani 1 1 d . . . . .
 O1 O 0.3373(6) 0.1947(6) 0.4665(5) 0.1009(19) Uani 1 1 d . U . . .
 O2 O -0.0172(9) 0.4537(9) 0.7116(7) 0.046(2) Uani 0.4690(15) 1 d . U P A 2
 O3 O -0.1952(7) 0.3843(7) 0.5294(6) 0.0443(17) Uani 0.5310(15) 1 d . U P A 1
 O4 O 0.1054(9) 0.6625(8) 0.2983(7) 0.0506(18) Uani 0.5310(15) 1 d . U P A 1
 O5 O -0.0551(8) 0.5114(8) 0.3130(6) 0.0491(18) Uani 0.5310(15) 1 d . U P A 1
 O6 O -0.1083(8) 0.5775(8) 0.6159(6) 0.0426(18) Uani 0.5310(15) 1 d . U P A 1
 O7 O 0.1366(8) 0.4426(9) 0.7068(6) 0.053(2) Uani 0.5310(15) 1 d . U P A 1
 O8 O 0.7061(5) 0.6541(5) 0.8435(4) 0.0667(17) Uani 1 1 d . U . . .
 O9 O -0.0479(9) 0.7041(8) 0.5241(7) 0.0421(18) Uani 0.4690(15) 1 d . U P A 2
 O10 O -0.2337(5) 0.1559(5) 0.5414(5) 0.0789(17) Uani 1 1 d . U . . .
 O11 O 0.2092(9) 0.2633(9) 0.5743(7) 0.056(2) Uani 0.5310(15) 1 d . U P A 1
 O12 O 0.6574(7) 0.8791(5) 0.7638(5) 0.0837(19) Uani 1 1 d . U . . .
 O13 O 0.1854(10) 0.7023(9) 0.3933(8) 0.054(2) Uani 0.4690(15) 1 d . U P A 2
 O14 O 0.4092(6) 1.0734(6) 0.2588(4) 0.0759(17) Uani 1 1 d . U . . .
 O15 O -0.1310(8) 0.6762(7) 0.4409(7) 0.0455(18) Uani 0.5310(15) 1 d . U P A 1
 O16 O 0.5165(4) 0.7264(5) 0.7453(5) 0.0674(16) Uani 1 1 d . U . . .
 O17 O 0.1906(8) 0.3762(8) 0.3803(7) 0.0513(18) Uani 0.5310(15) 1 d . U P A 1
 O18 O 0.0256(6) 0.6756(6) 0.1402(4) 0.0764(17) Uani 1 1 d . U . . .
 O19 O 0.2202(9) 0.6106(9) 0.5791(8) 0.0543(19) Uani 0.4690(15) 1 d . U P A 2
 O20 O 0.3553(5) 0.7508(5) 0.5113(5) 0.0780(15) Uani 1 1 d . U . . .
 O21 O 0.1472(10) 0.2463(9) 0.5040(8) 0.057(2) Uani 0.4690(15) 1 d . U P A 2
 O22 O 0.1510(9) 0.3085(9) 0.7008(7) 0.047(2) Uani 0.4690(15) 1 d . U P A 2
 O23 O 0.2833(9) 0.4150(9) 0.4869(8) 0.0517(19) Uani 0.4690(15) 1 d . U P A 2
 O24 O 0.5678(7) 1.2201(7) 0.2371(6) 0.1029(13) Uani 1 1 d . U . . .
 O25 O -0.0410(9) 0.6481(9) 0.3139(7) 0.049(2) Uani 0.4690(15) 1 d . U P A 2
 O26 O -0.1121(9) 0.3627(10) 0.4171(8) 0.051(2) Uani 0.4690(15) 1 d . U P A 2
 O27 O -0.1070(10) 0.2643(9) 0.6028(8) 0.052(2) Uani 0.4690(15) 1 d . U P A 2
 O28 O 0.0859(7) 0.3098(7) 0.8681(4) 0.092(2) Uani 1 1 d . U . . .
 O29 O -0.0451(8) 0.2509(7) 0.5077(7) 0.0475(18) Uani 0.5310(15) 1 d . U P A 1
 O32 O 0.1362(8) 0.7183(7) 0.5095(6) 0.0480(17) Uani 0.5310(15) 1 d . U P A 1
 O33 O -0.0053(9) 0.2899(9) 0.7050(7) 0.053(2) Uani 0.5310(15) 1 d . U P A 1
 O35 O -0.2609(6) 0.7236(6) 0.5722(5) 0.0977(19) Uani 1 1 d . U . . .
 O36 O 0.3920(8) 1.3001(7) 0.1602(6) 0.112(3) Uani 1 1 d . U . . .
 O37 O -0.1967(8) 0.5482(9) 0.5378(7) 0.0437(19) Uani 0.4690(15) 1 d . U P A 2
 O38 O 0.0984(9) 0.5062(9) 0.2994(7) 0.0448(18) Uani 0.4690(15) 1 d . U P A 2
 O40 O 0.2847(8) 0.5621(8) 0.4957(7) 0.0548(19) Uani 0.5310(15) 1 d . U P A 1
 N1 N -0.1666(5) 0.6671(5) 0.5382(4) 0.0499(13) Uani 1 1 d . U . . .
 N2 N -0.1547(5) 0.2574(5) 0.5226(4) 0.0478(13) Uani 1 1 d . U . . .
 N3 N 0.0786(5) 0.3494(5) 0.7646(4) 0.0433(13) Uani 1 1 d . U . . .
 N4 N 0.2623(5) 0.6797(5) 0.5012(5) 0.0564(13) Uani 1 1 d . U . . .
 N5 N 0.2532(6) 0.2856(6) 0.4718(5) 0.0662(16) Uani 1 1 d . U . . .
 N6 N 0.6303(6) 0.7569(6) 0.7913(5) 0.0610(18) Uani 1 1 d . U . . .
 N8 N 0.0328(6) 0.6172(6) 0.2513(4) 0.0511(13) Uani 1 1 d . U . . .
 N9 N 0.4609(6) 1.2018(6) 0.2185(4) 0.0566(15) Uani 1 1 d . U . . .
 O30 O 0.2301(9) 0.5854(8) 0.9373(8) 0.160(4) Uani 1 1 d D U . . .
 N10 N -0.0398(7) 0.8216(6) 0.8027(4) 0.0704(18) Uani 1 1 d D U . . .
 H10 H -0.136784 0.816673 0.796459 0.084 Uiso 1 1 calc R U . . .
 C2 C 0.0114(10) 0.6750(8) 0.8695(7) 0.079(2) Uani 1 1 d . U . . .
 H2A H -0.009756 0.611544 0.830376 0.095 Uiso 1 1 calc R U . . .
 H2B H -0.030036 0.636919 0.946247 0.095 Uiso 1 1 calc R U . . .
 C4 C 0.0220(6) 0.8745(9) 0.6819(5) 0.086(2) Uani 1 1 d D U . . .
 H4A H 0.011790 0.802593 0.648753 0.103 Uiso 1 1 calc R U . . .
 H4B H -0.021581 0.962550 0.631992 0.103 Uiso 1 1 calc R U . . .
 C6 C 0.1679(6) 0.9016(9) 0.6921(5) 0.092(3) Uani 1 1 d D U . . .
 H6A H 0.221677 0.859824 0.647448 0.110 Uiso 1 1 calc R U . . .
 H6B H 0.184875 1.004316 0.662108 0.110 Uiso 1 1 calc R U . . .
 C12 C 0.2035(9) 0.8339(7) 0.8180(5) 0.088(2) Uani 1 1 d D U . . .
 H12 H 0.300505 0.837847 0.824992 0.105 Uiso 1 1 calc R U . . .
 C14 C -0.0106(6) 0.9204(6) 0.8609(5) 0.0654(19) Uani 1 1 d D U . . .
 H14A H -0.060845 0.892064 0.933435 0.078 Uiso 1 1 calc R U . . .
 H14B H -0.036629 1.017839 0.811899 0.078 Uiso 1 1 calc R U . . .
 C19 C 0.1582(9) 0.6830(8) 0.8791(7) 0.086(2) Uani 1 1 d D U . . .
 C22 C 0.1361(6) 0.9150(7) 0.8838(6) 0.084(3) Uani 1 1 d D U . . .
 H22A H 0.151790 0.866302 0.966314 0.101 Uiso 1 1 calc R U . . .
 H22B H 0.171700 1.011780 0.858061 0.101 Uiso 1 1 calc R U . . .
 O31 O 0.3559(7) 0.8581(6) 0.0811(6) 0.112(3) Uani 1 1 d . U . . .
 N7 N 0.5336(5) 0.5352(5) 0.2128(4) 0.0564(15) Uani 1 1 d D U . . .
 H7 H 0.524657 0.431947 0.230771 0.068 Uiso 1 1 calc R U . . .
 C7 C 0.5886(8) 0.7174(6) 0.2930(4) 0.0635(19) Uani 1 1 d D U . . .
 H7A H 0.526728 0.748980 0.339126 0.076 Uiso 1 1 calc R U . . .
 H7B H 0.678672 0.735336 0.310986 0.076 Uiso 1 1 calc R U . . .
 C8 C 0.4006(6) 0.6085(6) 0.1756(7) 0.070(2) Uani 1 1 d D U . . .
 H8A H 0.364381 0.584684 0.113813 0.084 Uiso 1 1 calc R U . . .
 H8B H 0.337412 0.579059 0.240297 0.084 Uiso 1 1 calc R U . . .
 C15 C 0.6633(8) 0.7512(6) 0.0996(7) 0.078(2) Uani 1 1 d D U . . .
 H15A H 0.752270 0.755392 0.127386 0.093 Uiso 1 1 calc R U . . .
 H15B H 0.660761 0.813800 0.018063 0.093 Uiso 1 1 calc R U . . .
 C17 C 0.5706(9) 0.5576(6) 0.3227(5) 0.076(2) Uani 1 1 d D U . . .
 H17A H 0.500527 0.520184 0.381220 0.091 Uiso 1 1 calc R U . . .
 H17B H 0.652744 0.506400 0.353568 0.091 Uiso 1 1 calc R U . . .
 C20 C 0.6325(6) 0.5992(6) 0.1144(5) 0.0718(19) Uani 1 1 d D U . . .
 H20A H 0.713841 0.542120 0.130717 0.086 Uiso 1 1 calc R U . . .
 H20B H 0.595780 0.598640 0.043383 0.086 Uiso 1 1 calc R U . . .
 C24 C 0.5637(6) 0.8006(6) 0.1660(4) 0.0513(15) Uani 1 1 d D U . . .
 H24 H 0.572697 0.904254 0.146491 0.062 Uiso 1 1 calc R U . . .
 C28 C 0.4282(6) 0.7672(6) 0.1335(6) 0.0648(19) Uani 1 1 d D U . . .
 O34 O -0.1425(5) 1.3722(5) 0.0660(4) 0.0688(16) Uani 1 1 d . U . . .
 N12 N 0.1260(5) 1.1403(4) 0.2156(4) 0.0508(14) Uani 1 1 d D U . . .
 H12A H 0.220055 1.149207 0.231958 0.061 Uiso 1 1 calc R U . . .
 C1 C 0.0673(6) 1.2869(6) 0.1503(6) 0.062(2) Uani 1 1 d D U . . .
 H1A H 0.072208 1.345045 0.196447 0.075 Uiso 1 1 calc R U . . .
 H1B H 0.117240 1.335096 0.078412 0.075 Uiso 1 1 calc R U . . .
 C5 C -0.0960(6) 1.0695(8) 0.3017(5) 0.073(2) Uani 1 1 d D U . . .
 H5A H -0.136230 0.975760 0.342608 0.088 Uiso 1 1 calc R U . . .
 H5B H -0.139278 1.137295 0.329277 0.088 Uiso 1 1 calc R U . . .
 C9 C 0.0494(6) 1.0613(8) 0.3280(5) 0.067(2) Uani 1 1 d D U . . .
 H9A H 0.078076 0.961429 0.361809 0.080 Uiso 1 1 calc R U . . .
 H9B H 0.066101 1.105270 0.383152 0.080 Uiso 1 1 calc R U . . .
 C10 C 0.1151(6) 1.0562(6) 0.1406(5) 0.064(2) Uani 1 1 d D U . . .
 H10A H 0.165017 0.966865 0.173909 0.076 Uiso 1 1 calc R U . . .
 H10B H 0.152391 1.111128 0.064030 0.076 Uiso 1 1 calc R U . . .
 C16 C -0.0754(5) 1.2696(5) 0.1245(5) 0.0488(16) Uani 1 1 d D U . . .
 C18 C -0.0300(5) 1.0239(5) 0.1309(5) 0.0553(16) Uani 1 1 d D U . . .
 H18A H -0.047374 0.922759 0.176033 0.066 Uiso 1 1 calc R U . . .
 H18B H -0.050158 1.043969 0.050559 0.066 Uiso 1 1 calc R U . . .
 C26 C -0.1181(5) 1.1157(5) 0.1753(4) 0.0476(15) Uani 1 1 d D U . . .
 H26 H -0.212291 1.106359 0.159743 0.057 Uiso 1 1 calc R U . . .
 O39 O 0.3686(7) 0.1151(7) 0.9634(8) 0.156(4) Uani 1 1 d D U . . .
 N11 N 0.5536(7) 0.4261(8) 0.8016(7) 0.095(2) Uani 1 1 d . U . . .
 H11 H 0.565877 0.524560 0.797043 0.114 Uiso 1 1 calc R U . . .
 C3 C 0.4310(10) 0.3646(10) 0.8701(9) 0.098(3) Uani 1 1 d . U . . .
 H3A H 0.351957 0.406615 0.825835 0.118 Uiso 1 1 calc R U . . .
 H3B H 0.428161 0.381725 0.941360 0.118 Uiso 1 1 calc R U . . .
 C11 C 0.6749(9) 0.3402(11) 0.8494(10) 0.110(3) Uani 1 1 d . U . . .
 H11A H 0.685606 0.331275 0.928910 0.132 Uiso 1 1 calc R U . . .
 H11B H 0.752454 0.390004 0.804739 0.132 Uiso 1 1 calc R U . . .
 C13 C 0.6678(10) 0.1936(11) 0.8467(10) 0.107(3) Uani 1 1 d . U . . .
 H13A H 0.687445 0.121238 0.922732 0.128 Uiso 1 1 calc R U . . .
 H13B H 0.733232 0.184787 0.791480 0.128 Uiso 1 1 calc R U . . .
 C21 C 0.5111(12) 0.2895(12) 0.6884(10) 0.119(3) Uani 1 1 d . U . . .
 H21A H 0.579165 0.278128 0.636142 0.143 Uiso 1 1 calc R U . . .
 H21B H 0.424497 0.279161 0.659149 0.143 Uiso 1 1 calc R U . . .
 C23 C 0.5289(8) 0.1707(10) 0.8118(7) 0.102(3) Uani 1 1 d D U . . .
 H23 H 0.514888 0.073114 0.814897 0.122 Uiso 1 1 calc R U . . .
 C25 C 0.5212(12) 0.4301(12) 0.6912(10) 0.120(3) Uani 1 1 d . U . . .
 H25A H 0.589049 0.484279 0.635318 0.144 Uiso 1 1 calc R U . . .
 H25B H 0.436776 0.480224 0.667968 0.144 Uiso 1 1 calc R U . . .
 C27 C 0.4396(7) 0.2075(8) 0.8955(7) 0.110(3) Uani 1 1 d D U . . .

loop_
  _atom_site_aniso_label
  _atom_site_aniso_U_11
  _atom_site_aniso_U_22
  _atom_site_aniso_U_33
  _atom_site_aniso_U_23
  _atom_site_aniso_U_13
  _atom_site_aniso_U_12
 Dy1 0.02655(8) 0.02526(7) 0.03086(7) -0.01214(5) 0.00058(6) -0.00180(6)
 Cs1 0.04090(13) 0.03289(12) 0.07547(17) -0.01436(11) -0.01685(12) -0.00226(10)
 O1 0.095(3) 0.079(3) 0.119(3) -0.031(2) 0.029(3) 0.055(2)
 O2 0.043(3) 0.054(3) 0.040(3) -0.016(3) 0.001(3) 0.009(3)
 O3 0.036(3) 0.041(3) 0.060(3) -0.024(2) 0.003(3) -0.011(2)
 O4 0.062(3) 0.045(3) 0.049(3) -0.023(2) -0.004(3) 0.006(3)
 O5 0.053(3) 0.055(3) 0.043(3) -0.022(2) -0.001(3) -0.002(3)
 O6 0.041(3) 0.041(3) 0.047(3) -0.018(2) 0.001(3) 0.006(3)
 O7 0.052(3) 0.066(3) 0.034(3) -0.011(3) 0.002(3) -0.003(3)
 O8 0.068(3) 0.049(2) 0.068(3) -0.004(2) -0.023(2) -0.009(2)
 O9 0.048(3) 0.040(3) 0.048(3) -0.027(2) -0.005(3) 0.004(3)
 O10 0.075(3) 0.066(2) 0.087(3) -0.019(2) -0.003(2) -0.044(2)
 O11 0.051(3) 0.051(3) 0.067(3) -0.023(3) 0.002(3) 0.000(3)
 O12 0.113(4) 0.044(2) 0.098(3) -0.031(2) -0.011(3) -0.006(3)
 O13 0.055(3) 0.049(3) 0.069(3) -0.035(2) 0.002(3) -0.006(3)
 O14 0.080(3) 0.082(3) 0.072(3) -0.036(2) -0.008(3) -0.003(3)
 O15 0.044(3) 0.036(3) 0.056(3) -0.017(2) -0.008(3) 0.012(3)
 O16 0.036(2) 0.063(2) 0.097(3) -0.024(2) 0.005(2) -0.011(2)
 O17 0.053(3) 0.044(3) 0.066(3) -0.031(2) 0.002(3) 0.000(3)
 O18 0.110(4) 0.081(3) 0.0277(13) -0.0094(18) -0.006(2) -0.006(3)
 O19 0.048(3) 0.056(3) 0.079(3) -0.047(2) 0.000(3) -0.017(3)
 O20 0.065(3) 0.070(2) 0.106(3) -0.0421(19) -0.002(2) -0.034(2)
 O21 0.056(3) 0.045(3) 0.073(3) -0.026(3) 0.007(3) -0.006(3)
 O22 0.048(3) 0.057(3) 0.036(3) -0.017(3) 0.001(3) 0.007(3)
 O23 0.052(3) 0.045(3) 0.072(3) -0.039(2) -0.002(3) 0.000(3)
 O24 0.0999(19) 0.1032(18) 0.1031(18) -0.0373(13) -0.0013(15) -0.0003(15)
 O25 0.054(3) 0.047(3) 0.044(3) -0.015(3) -0.007(3) 0.017(3)
 O26 0.039(3) 0.052(3) 0.062(3) -0.021(3) 0.005(3) -0.013(3)
 O27 0.052(3) 0.045(3) 0.056(3) -0.014(3) 0.004(3) -0.012(3)
 O28 0.118(4) 0.105(3) 0.040(2) -0.014(2) -0.009(3) 0.003(3)
 O29 0.047(3) 0.038(3) 0.065(3) -0.028(2) 0.007(3) -0.006(3)
 O32 0.048(3) 0.047(3) 0.066(3) -0.040(2) 0.007(3) -0.007(3)
 O33 0.056(3) 0.052(3) 0.042(3) -0.009(3) 0.004(3) -0.003(3)
 O35 0.098(3) 0.094(3) 0.096(3) -0.034(2) 0.019(3) 0.054(2)
 O36 0.130(5) 0.100(4) 0.111(4) -0.045(3) -0.026(4) 0.034(4)
 O37 0.037(3) 0.046(3) 0.054(3) -0.026(2) 0.006(3) 0.007(3)
 O38 0.054(3) 0.048(3) 0.041(3) -0.028(2) -0.005(3) 0.009(3)
 O40 0.046(3) 0.051(3) 0.078(3) -0.038(2) 0.007(3) -0.003(3)
 N1 0.046(2) 0.0481(19) 0.059(2) -0.0256(16) 0.0032(19) 0.0270(18)
 N2 0.042(2) 0.0397(19) 0.064(2) -0.0215(16) 0.005(2) -0.0193(18)
 N3 0.045(2) 0.054(2) 0.0294(18) -0.0149(16) -0.0058(18) 0.003(2)
 N4 0.050(2) 0.056(2) 0.079(2) -0.0427(16) 0.008(2) -0.0182(19)
 N5 0.062(3) 0.055(2) 0.083(3) -0.030(2) 0.005(2) 0.013(2)
 N6 0.057(3) 0.045(3) 0.071(3) -0.011(2) 0.003(3) -0.015(2)
 N8 0.063(3) 0.057(2) 0.0316(13) -0.0148(17) -0.012(2) 0.005(2)
 N9 0.059(3) 0.074(3) 0.048(2) -0.0365(17) -0.002(2) 0.007(2)
 O30 0.171(7) 0.109(5) 0.153(7) 0.001(5) -0.008(6) 0.021(5)
 N10 0.096(3) 0.060(3) 0.046(2) -0.009(2) -0.023(3) 0.009(3)
 C2 0.115(5) 0.047(3) 0.070(4) -0.017(3) 0.001(4) 0.001(4)
 C4 0.130(5) 0.088(4) 0.028(3) -0.010(3) -0.018(3) 0.002(4)
 C6 0.129(5) 0.080(4) 0.041(3) 0.002(3) 0.034(3) 0.015(4)
 C12 0.105(4) 0.064(3) 0.073(3) -0.006(3) 0.027(3) 0.012(3)
 C14 0.099(4) 0.050(3) 0.053(3) -0.029(2) 0.011(3) 0.023(3)
 C19 0.116(4) 0.046(3) 0.072(4) 0.001(3) 0.018(4) 0.008(3)
 C22 0.107(4) 0.062(4) 0.074(4) -0.016(3) 0.006(4) 0.006(4)
 O31 0.100(4) 0.102(4) 0.121(4) -0.030(3) -0.045(4) 0.040(3)
 N7 0.073(3) 0.031(2) 0.050(2) -0.0012(19) 0.021(2) 0.008(2)
 C7 0.087(4) 0.065(3) 0.046(3) -0.029(2) -0.016(3) 0.017(3)
 C8 0.062(4) 0.061(3) 0.071(4) -0.008(3) -0.008(3) -0.006(3)
 C15 0.076(4) 0.061(4) 0.074(4) -0.004(3) 0.031(3) -0.011(3)
 C17 0.089(4) 0.078(4) 0.035(3) 0.006(3) -0.002(3) 0.017(4)
 C20 0.083(3) 0.063(3) 0.066(3) -0.024(2) 0.047(2) 0.015(3)
 C24 0.068(3) 0.036(2) 0.062(2) -0.0334(17) -0.016(2) 0.010(2)
 C28 0.066(3) 0.058(3) 0.069(3) -0.022(3) -0.032(3) 0.029(3)
 O34 0.077(3) 0.048(2) 0.074(3) -0.0176(19) -0.012(2) 0.039(2)
 N12 0.036(2) 0.053(2) 0.074(2) -0.0354(17) -0.015(2) 0.0005(19)
 C1 0.059(3) 0.043(3) 0.085(3) -0.025(2) -0.011(3) -0.005(3)
 C5 0.065(4) 0.065(3) 0.084(4) -0.022(3) 0.013(3) 0.009(3)
 C9 0.082(4) 0.065(3) 0.061(3) -0.031(2) -0.005(3) -0.001(3)
 C10 0.053(3) 0.067(3) 0.078(3) -0.035(3) -0.007(3) 0.012(3)
 C16 0.048(3) 0.035(2) 0.070(3) -0.0275(19) 0.001(3) 0.013(2)
 C18 0.063(3) 0.047(2) 0.078(3) -0.0480(17) -0.022(3) 0.009(2)
 C26 0.033(2) 0.045(2) 0.073(3) -0.030(2) -0.012(2) 0.005(2)
 O39 0.110(5) 0.135(6) 0.180(7) -0.013(5) 0.030(5) -0.044(5)
 N11 0.076(3) 0.077(3) 0.123(4) -0.028(3) -0.020(3) -0.006(3)
 C3 0.077(4) 0.103(4) 0.114(4) -0.040(4) -0.006(4) 0.001(4)
 C11 0.069(4) 0.094(4) 0.143(5) -0.018(4) -0.032(4) -0.015(4)
 C13 0.074(4) 0.103(5) 0.128(5) -0.029(4) -0.022(4) 0.005(4)
 C21 0.098(5) 0.117(5) 0.126(5) -0.030(4) -0.008(5) 0.004(5)
 C23 0.079(4) 0.098(4) 0.125(4) -0.039(4) -0.011(4) 0.000(4)
 C25 0.097(5) 0.105(5) 0.128(5) -0.011(5) -0.010(5) 0.012(4)
 C27 0.077(4) 0.105(4) 0.122(5) -0.017(4) 0.000(4) -0.033(4)

_geom_special_details
;
 All esds (except the esd in the dihedral angle between two l.s. planes)
 are estimated using the full covariance matrix.  The cell esds are taken
 into account individually in the estimation of esds in distances, angles
 and torsion angles; correlations between esds in cell parameters are only
 used when they are defined by crystal symmetry.  An approximate (isotropic)
 treatment of cell esds is used for estimating esds involving l.s. planes.
;
loop_
  _geom_bond_atom_site_label_1
  _geom_bond_atom_site_label_2
  _geom_bond_distance
  _geom_bond_site_symmetry_2
  _geom_bond_publ_flag
 Dy1 O2 2.590(9) . ?
 Dy1 O3 2.575(7) . ?
 Dy1 O4 2.571(7) . ?
 Dy1 O5 2.498(8) . ?
 Dy1 O6 2.520(8) . ?
 Dy1 O7 2.614(8) . ?
 Dy1 O9 2.555(9) . ?
 Dy1 O11 2.577(8) . ?
 Dy1 O13 2.549(9) . ?
 Dy1 O15 2.548(7) . ?
 Dy1 O17 2.565(9) . ?
 Dy1 O19 2.612(10) . ?
 Dy1 O21 2.531(10) . ?
 Dy1 O22 2.636(8) . ?
 Dy1 O23 2.476(9) . ?
 Dy1 O25 2.486(8) . ?
 Dy1 O26 2.468(10) . ?
 Dy1 O27 2.546(9) . ?
 Dy1 O29 2.454(8) . ?
 Dy1 O32 2.619(8) . ?
 Dy1 O33 2.552(7) . ?
 Dy1 O37 2.599(8) . ?
 Dy1 O38 2.490(8) . ?
 Dy1 O40 2.530(8) . ?
 Cs1 O1 2.919(5) 1_565 ?
 Cs1 O10 3.016(5) 1_665 ?
 Cs1 O12 3.248(6) . ?
 Cs1 O14 3.149(5) . ?
 Cs1 O16 3.130(5) . ?
 Cs1 O20 2.969(5) . ?
 Cs1 O24 3.265(6) . ?
 Cs1 O35 3.047(6) 1_655 ?
 O1 N5 1.256(8) . ?
 O2 N3 1.389(9) . ?
 O3 N2 1.370(10) . ?
 O4 N8 1.146(11) . ?
 O5 N8 1.365(9) . ?
 O6 N1 1.196(8) . ?
 O7 N3 1.100(9) . ?
 O8 N6 1.246(7) . ?
 O9 N1 1.238(10) . ?
 O10 N2 1.245(7) . ?
 O11 N5 1.281(11) . ?
 O12 N6 1.176(7) . ?
 O13 N4 1.506(11) . ?
 O14 N9 1.301(8) . ?
 O15 N1 1.229(10) . ?
 O16 N6 1.376(8) . ?
 O17 N5 1.320(9) . ?
 O18 N8 1.284(6) . ?
 O19 N4 1.036(9) . ?
 O20 N4 1.218(8) . ?
 O21 N5 1.146(11) . ?
 O22 N3 1.246(11) . ?
 O23 N5 1.424(11) . ?
 O24 N9 1.132(9) . ?
 O25 N8 1.189(11) . ?
 O26 N2 1.396(9) . ?
 O27 N2 1.146(12) . ?
 O28 N3 1.200(7) . ?
 O29 N2 1.114(9) . ?
 O32 N4 1.331(10) . ?
 O33 N3 1.415(11) . ?
 O35 N1 1.247(8) . ?
 O36 N9 1.198(8) . ?
 O37 N1 1.239(10) . ?
 O38 N8 1.233(9) . ?
 O40 N4 1.230(10) . ?
 O30 C19 1.211(9) . ?
 N10 H10 0.9800 . ?
 N10 C2 1.478(9) . ?
 N10 C4 1.514(7) . ?
 N10 C14 1.475(10) . ?
 C2 H2A 0.9700 . ?
 C2 H2B 0.9700 . ?
 C2 C19 1.483(13) . ?
 C4 H4A 0.9700 . ?
 C4 H4B 0.9700 . ?
 C4 C6 1.506(8) . ?
 C6 H6A 0.9700 . ?
 C6 H6B 0.9700 . ?
 C6 C12 1.502(7) . ?
 C12 H12 0.9800 . ?
 C12 C19 1.483(10) . ?
 C12 C22 1.511(9) . ?
 C14 H14A 0.9700 . ?
 C14 H14B 0.9700 . ?
 C14 C22 1.499(8) . ?
 C22 H22A 0.9700 . ?
 C22 H22B 0.9700 . ?
 O31 C28 1.154(8) . ?
 N7 H7 0.9800 . ?
 N7 C8 1.507(7) . ?
 N7 C17 1.528(8) . ?
 N7 C20 1.503(6) . ?
 C7 H7A 0.9700 . ?
 C7 H7B 0.9700 . ?
 C7 C17 1.516(7) . ?
 C7 C24 1.504(6) . ?
 C8 H8A 0.9700 . ?
 C8 H8B 0.9700 . ?
 C8 C28 1.504(7) . ?
 C15 H15A 0.9700 . ?
 C15 H15B 0.9700 . ?
 C15 C20 1.503(8) . ?
 C15 C24 1.485(10) . ?
 C17 H17A 0.9700 . ?
 C17 H17B 0.9700 . ?
 C20 H20A 0.9700 . ?
 C20 H20B 0.9700 . ?
 C24 H24 0.9800 . ?
 C24 C28 1.503(8) . ?
 O34 C16 1.214(6) . ?
 N12 H12A 0.9800 . ?
 N12 C1 1.503(6) . ?
 N12 C9 1.516(6) . ?
 N12 C10 1.493(8) . ?
 C1 H1A 0.9700 . ?
 C1 H1B 0.9700 . ?
 C1 C16 1.499(7) . ?
 C5 H5A 0.9700 . ?
 C5 H5B 0.9700 . ?
 C5 C9 1.494(8) . ?
 C5 C26 1.485(7) . ?
 C9 H9A 0.9700 . ?
 C9 H9B 0.9700 . ?
 C10 H10A 0.9700 . ?
 C10 H10B 0.9700 . ?
 C10 C18 1.510(7) . ?
 C16 C26 1.493(6) . ?
 C18 H18A 0.9700 . ?
 C18 H18B 0.9700 . ?
 C18 C26 1.515(7) . ?
 C26 H26 0.9800 . ?
 O39 C27 1.213(8) . ?
 N11 H11 0.9800 . ?
 N11 C3 1.479(12) . ?
 N11 C11 1.479(12) . ?
 N11 C25 1.409(15) . ?
 C3 H3A 0.9700 . ?
 C3 H3B 0.9700 . ?
 C3 C27 1.490(13) . ?
 C11 H11A 0.9700 . ?
 C11 H11B 0.9700 . ?
 C11 C13 1.491(16) . ?
 C13 H13A 0.9700 . ?
 C13 H13B 0.9700 . ?
 C13 C23 1.513(13) . ?
 C21 H21A 0.9700 . ?
 C21 H21B 0.9700 . ?
 C21 C23 1.556(13) . ?
 C21 C25 1.434(17) . ?
 C23 H23 0.9800 . ?
 C23 C27 1.511(10) . ?
 C25 H25A 0.9700 . ?
 C25 H25B 0.9700 . ?

loop_
  _geom_angle_atom_site_label_1
  _geom_angle_atom_site_label_2
  _geom_angle_atom_site_label_3
  _geom_angle
  _geom_angle_site_symmetry_1
  _geom_angle_site_symmetry_3
  _geom_angle_publ_flag
 O2 Dy1 O19 69.5(3) . . ?
 O2 Dy1 O22 51.1(3) . . ?
 O2 Dy1 O37 63.1(3) . . ?
 O3 Dy1 O7 108.2(2) . . ?
 O3 Dy1 O11 109.3(2) . . ?
 O3 Dy1 O32 128.9(3) . . ?
 O4 Dy1 O3 114.9(3) . . ?
 O4 Dy1 O7 131.6(3) . . ?
 O4 Dy1 O11 113.2(3) . . ?
 O4 Dy1 O32 68.6(3) . . ?
 O5 Dy1 O3 68.3(3) . . ?
 O5 Dy1 O4 51.0(3) . . ?
 O5 Dy1 O6 110.0(3) . . ?
 O5 Dy1 O7 176.3(3) . . ?
 O5 Dy1 O11 112.5(3) . . ?
 O5 Dy1 O15 67.5(3) . . ?
 O5 Dy1 O17 66.6(3) . . ?
 O5 Dy1 O32 113.3(2) . . ?
 O5 Dy1 O33 129.3(3) . . ?
 O5 Dy1 O40 116.7(3) . . ?
 O6 Dy1 O3 64.6(3) . . ?
 O6 Dy1 O4 113.5(2) . . ?
 O6 Dy1 O7 66.8(3) . . ?
 O6 Dy1 O11 130.1(3) . . ?
 O6 Dy1 O15 47.4(2) . . ?
 O6 Dy1 O17 176.4(3) . . ?
 O6 Dy1 O32 68.0(2) . . ?
 O6 Dy1 O33 68.6(3) . . ?
 O6 Dy1 O40 112.8(3) . . ?
 O7 Dy1 O32 67.7(2) . . ?
 O9 Dy1 O2 63.7(3) . . ?
 O9 Dy1 O19 66.8(3) . . ?
 O9 Dy1 O22 109.2(3) . . ?
 O9 Dy1 O37 48.9(3) . . ?
 O11 Dy1 O7 69.5(3) . . ?
 O11 Dy1 O32 115.2(3) . . ?
 O13 Dy1 O2 112.6(3) . . ?
 O13 Dy1 O9 67.3(3) . . ?
 O13 Dy1 O19 49.8(3) . . ?
 O13 Dy1 O22 113.4(3) . . ?
 O13 Dy1 O37 110.9(3) . . ?
 O15 Dy1 O3 65.9(2) . . ?
 O15 Dy1 O4 70.9(3) . . ?
 O15 Dy1 O7 110.3(3) . . ?
 O15 Dy1 O11 175.1(3) . . ?
 O15 Dy1 O17 130.2(2) . . ?
 O15 Dy1 O32 68.6(3) . . ?
 O15 Dy1 O33 111.3(3) . . ?
 O17 Dy1 O3 112.3(3) . . ?
 O17 Dy1 O4 65.8(2) . . ?
 O17 Dy1 O7 116.5(3) . . ?
 O17 Dy1 O11 52.0(3) . . ?
 O17 Dy1 O32 114.3(3) . . ?
 O19 Dy1 O22 67.3(3) . . ?
 O21 Dy1 O2 110.6(3) . . ?
 O21 Dy1 O9 173.8(3) . . ?
 O21 Dy1 O13 114.4(3) . . ?
 O21 Dy1 O19 109.4(3) . . ?
 O21 Dy1 O22 64.6(3) . . ?
 O21 Dy1 O27 68.1(3) . . ?
 O21 Dy1 O37 132.0(3) . . ?
 O23 Dy1 O2 111.6(3) . . ?
 O23 Dy1 O9 128.0(3) . . ?
 O23 Dy1 O13 68.8(3) . . ?
 O23 Dy1 O19 64.1(3) . . ?
 O23 Dy1 O21 50.4(3) . . ?
 O23 Dy1 O22 65.7(3) . . ?
 O23 Dy1 O25 112.0(3) . . ?
 O23 Dy1 O27 114.7(3) . . ?
 O23 Dy1 O37 174.4(3) . . ?
 O23 Dy1 O38 70.6(3) . . ?
 O25 Dy1 O2 129.6(3) . . ?
 O25 Dy1 O9 70.0(3) . . ?
 O25 Dy1 O13 63.2(3) . . ?
 O25 Dy1 O19 109.5(3) . . ?
 O25 Dy1 O21 116.2(3) . . ?
 O25 Dy1 O22 176.6(3) . . ?
 O25 Dy1 O27 112.8(3) . . ?
 O25 Dy1 O37 72.0(3) . . ?
 O25 Dy1 O38 48.4(3) . . ?
 O26 Dy1 O2 114.3(3) . . ?
 O26 Dy1 O9 113.5(3) . . ?
 O26 Dy1 O13 126.4(3) . . ?
 O26 Dy1 O19 176.1(3) . . ?
 O26 Dy1 O21 70.7(3) . . ?
 O26 Dy1 O22 115.6(3) . . ?
 O26 Dy1 O23 114.4(3) . . ?
 O26 Dy1 O25 67.5(3) . . ?
 O26 Dy1 O27 50.6(3) . . ?
 O26 Dy1 O37 70.5(3) . . ?
 O26 Dy1 O38 64.4(3) . . ?
 O27 Dy1 O2 68.6(3) . . ?
 O27 Dy1 O9 110.6(3) . . ?
 O27 Dy1 O13 175.8(3) . . ?
 O27 Dy1 O19 133.2(3) . . ?
 O27 Dy1 O22 70.5(3) . . ?
 O27 Dy1 O37 65.8(3) . . ?
 O29 Dy1 O3 49.0(3) . . ?
 O29 Dy1 O4 114.6(3) . . ?
 O29 Dy1 O5 69.0(3) . . ?
 O29 Dy1 O6 108.9(3) . . ?
 O29 Dy1 O7 109.8(3) . . ?
 O29 Dy1 O11 65.3(3) . . ?
 O29 Dy1 O15 110.7(3) . . ?
 O29 Dy1 O17 68.8(3) . . ?
 O29 Dy1 O32 176.5(3) . . ?
 O29 Dy1 O33 64.7(3) . . ?
 O29 Dy1 O40 131.2(3) . . ?
 O33 Dy1 O3 66.3(3) . . ?
 O33 Dy1 O4 177.8(3) . . ?
 O33 Dy1 O7 48.2(3) . . ?
 O33 Dy1 O11 64.7(3) . . ?
 O33 Dy1 O17 112.2(3) . . ?
 O33 Dy1 O32 112.2(3) . . ?
 O37 Dy1 O19 111.2(3) . . ?
 O37 Dy1 O22 110.0(3) . . ?
 O38 Dy1 O2 177.8(3) . . ?
 O38 Dy1 O9 114.9(3) . . ?
 O38 Dy1 O13 67.8(3) . . ?
 O38 Dy1 O19 111.8(3) . . ?
 O38 Dy1 O21 70.8(3) . . ?
 O38 Dy1 O22 131.0(3) . . ?
 O38 Dy1 O27 110.8(3) . . ?
 O38 Dy1 O37 114.7(3) . . ?
 O40 Dy1 O3 175.0(3) . . ?
 O40 Dy1 O4 69.9(3) . . ?
 O40 Dy1 O7 66.8(3) . . ?
 O40 Dy1 O11 68.8(3) . . ?
 O40 Dy1 O15 115.9(2) . . ?
 O40 Dy1 O17 70.5(3) . . ?
 O40 Dy1 O32 50.7(3) . . ?
 O40 Dy1 O33 108.9(3) . . ?
 O1 Cs1 O10 95.60(17) 1_565 1_665 ?
 O1 Cs1 O12 109.21(18) 1_565 . ?
 O1 Cs1 O14 66.48(18) 1_565 . ?
 O1 Cs1 O16 111.27(15) 1_565 . ?
 O1 Cs1 O20 93.43(17) 1_565 . ?
 O1 Cs1 O24 70.41(18) 1_565 . ?
 O1 Cs1 O35 170.92(16) 1_565 1_655 ?
 O10 Cs1 O12 62.60(14) 1_665 . ?
 O10 Cs1 O14 121.01(14) 1_665 . ?
 O10 Cs1 O16 102.26(14) 1_665 . ?
 O10 Cs1 O24 82.57(17) 1_665 . ?
 O10 Cs1 O35 88.44(16) 1_665 1_655 ?
 O12 Cs1 O24 145.12(17) . . ?
 O14 Cs1 O12 174.07(17) . . ?
 O14 Cs1 O24 38.59(17) . . ?
 O16 Cs1 O12 39.89(14) . . ?
 O16 Cs1 O14 136.72(15) . . ?
 O16 Cs1 O24 174.5(2) . . ?
 O20 Cs1 O10 166.75(13) . 1_665 ?
 O20 Cs1 O12 105.19(14) . . ?
 O20 Cs1 O14 71.62(14) . . ?
 O20 Cs1 O16 65.31(14) . . ?
 O20 Cs1 O24 109.66(18) . . ?
 O20 Cs1 O35 81.30(16) . 1_655 ?
 O35 Cs1 O12 65.53(17) 1_655 . ?
 O35 Cs1 O14 118.15(17) 1_655 . ?
 O35 Cs1 O16 59.81(14) 1_655 . ?
 O35 Cs1 O24 118.29(18) 1_655 . ?
 N5 O1 Cs1 168.4(5) . 1_545 ?
 N3 O2 Dy1 94.9(5) . . ?
 N2 O3 Dy1 91.7(4) . . ?
 N8 O4 Dy1 95.2(5) . . ?
 N8 O5 Dy1 93.0(5) . . ?
 N1 O6 Dy1 100.3(5) . . ?
 N3 O7 Dy1 102.2(6) . . ?
 N1 O9 Dy1 97.3(5) . . ?
 N2 O10 Cs1 159.7(4) . 1_445 ?
 N5 O11 Dy1 93.4(5) . . ?
 N6 O12 Cs1 95.1(5) . . ?
 N4 O13 Dy1 90.7(4) . . ?
 N9 O14 Cs1 94.4(4) . . ?
 N1 O15 Dy1 97.9(4) . . ?
 N6 O16 Cs1 96.1(3) . . ?
 N5 O17 Dy1 93.0(5) . . ?
 N4 O19 Dy1 100.3(7) . . ?
 N4 O20 Cs1 167.3(4) . . ?
 N5 O21 Dy1 99.5(6) . . ?
 N3 O22 Dy1 96.5(5) . . ?
 N5 O23 Dy1 94.2(5) . . ?
 N9 O24 Cs1 92.3(4) . . ?
 N8 O25 Dy1 98.4(5) . . ?
 N2 O26 Dy1 95.6(5) . . ?
 N2 O27 Dy1 99.1(5) . . ?
 N2 O29 Dy1 105.4(6) . . ?
 N4 O32 Dy1 91.9(5) . . ?
 N3 O33 Dy1 95.8(4) . . ?
 N1 O35 Cs1 144.5(4) . 1_455 ?
 N1 O37 Dy1 95.1(5) . . ?
 N8 O38 Dy1 96.9(6) . . ?
 N4 O40 Dy1 98.7(5) . . ?
 O6 N1 O15 114.4(7) . . ?
 O6 N1 O35 113.2(6) . . ?
 O9 N1 O35 127.8(7) . . ?
 O9 N1 O37 118.8(7) . . ?
 O15 N1 O35 132.0(6) . . ?
 O37 N1 O35 112.3(6) . . ?
 O10 N2 O3 121.5(6) . . ?
 O10 N2 O26 129.5(7) . . ?
 O27 N2 O10 115.9(6) . . ?
 O27 N2 O26 114.6(7) . . ?
 O29 N2 O3 113.9(6) . . ?
 O29 N2 O10 124.3(7) . . ?
 O7 N3 O28 120.6(8) . . ?
 O7 N3 O33 113.6(7) . . ?
 O22 N3 O2 117.5(6) . . ?
 O28 N3 O2 116.3(7) . . ?
 O28 N3 O22 126.2(6) . . ?
 O28 N3 O33 125.7(6) . . ?
 O19 N4 O13 116.5(8) . . ?
 O19 N4 O20 114.7(8) . . ?
 O20 N4 O13 127.6(6) . . ?
 O20 N4 O32 121.4(6) . . ?
 O20 N4 O40 119.4(7) . . ?
 O40 N4 O32 118.7(7) . . ?
 O1 N5 Dy1 174.9(4) . . ?
 O1 N5 O11 114.6(6) . . ?
 O1 N5 O17 123.4(7) . . ?
 O1 N5 O23 125.5(7) . . ?
 O11 N5 Dy1 60.9(4) . . ?
 O11 N5 O17 120.2(7) . . ?
 O17 N5 Dy1 60.4(5) . . ?
 O21 N5 Dy1 58.0(6) . . ?
 O21 N5 O1 118.0(7) . . ?
 O21 N5 O23 111.7(8) . . ?
 O23 N5 Dy1 57.0(4) . . ?
 O8 N6 O16 117.2(6) . . ?
 O12 N6 O8 124.8(7) . . ?
 O12 N6 O16 117.0(6) . . ?
 O4 N8 Dy1 61.7(4) . . ?
 O4 N8 O5 120.4(6) . . ?
 O4 N8 O18 119.6(6) . . ?
 O5 N8 Dy1 59.1(4) . . ?
 O18 N8 Dy1 178.6(5) . . ?
 O18 N8 O5 119.6(6) . . ?
 O25 N8 Dy1 57.8(4) . . ?
 O25 N8 O18 122.6(6) . . ?
 O25 N8 O38 114.8(6) . . ?
 O38 N8 Dy1 58.2(4) . . ?
 O38 N8 O18 121.1(7) . . ?
 O14 N9 Cs1 63.8(3) . . ?
 O24 N9 Cs1 68.8(4) . . ?
 O24 N9 O14 121.2(6) . . ?
 O24 N9 O36 121.0(7) . . ?
 O36 N9 Cs1 145.3(5) . . ?
 O36 N9 O14 117.8(7) . . ?
 C2 N10 H10 108.6 . . ?
 C2 N10 C4 108.4(6) . . ?
 C4 N10 H10 108.6 . . ?
 C14 N10 H10 108.6 . . ?
 C14 N10 C2 111.3(6) . . ?
 C14 N10 C4 111.2(6) . . ?
 N10 C2 H2A 110.0 . . ?
 N10 C2 H2B 110.0 . . ?
 N10 C2 C19 108.4(6) . . ?
 H2A C2 H2B 108.4 . . ?
 C19 C2 H2A 110.0 . . ?
 C19 C2 H2B 110.0 . . ?
 N10 C4 H4A 110.2 . . ?
 N10 C4 H4B 110.2 . . ?
 H4A C4 H4B 108.5 . . ?
 C6 C4 N10 107.6(5) . . ?
 C6 C4 H4A 110.2 . . ?
 C6 C4 H4B 110.2 . . ?
 C4 C6 H6A 110.1 . . ?
 C4 C6 H6B 110.1 . . ?
 H6A C6 H6B 108.4 . . ?
 C12 C6 C4 108.2(5) . . ?
 C12 C6 H6A 110.1 . . ?
 C12 C6 H6B 110.1 . . ?
 C6 C12 H12 109.2 . . ?
 C6 C12 C22 109.8(6) . . ?
 C19 C12 C6 114.9(7) . . ?
 C19 C12 H12 109.2 . . ?
 C19 C12 C22 104.4(6) . . ?
 C22 C12 H12 109.2 . . ?
 N10 C14 H14A 109.9 . . ?
 N10 C14 H14B 109.9 . . ?
 N10 C14 C22 109.0(6) . . ?
 H14A C14 H14B 108.3 . . ?
 C22 C14 H14A 109.9 . . ?
 C22 C14 H14B 109.9 . . ?
 O30 C19 C2 125.9(7) . . ?
 O30 C19 C12 123.8(9) . . ?
 C2 C19 C12 109.9(6) . . ?
 C12 C22 H22A 110.1 . . ?
 C12 C22 H22B 110.2 . . ?
 C14 C22 C12 107.8(7) . . ?
 C14 C22 H22A 110.1 . . ?
 C14 C22 H22B 110.2 . . ?
 H22A C22 H22B 108.5 . . ?
 C8 N7 H7 109.4 . . ?
 C8 N7 C17 106.6(6) . . ?
 C17 N7 H7 109.4 . . ?
 C20 N7 H7 109.4 . . ?
 C20 N7 C8 108.4(4) . . ?
 C20 N7 C17 113.5(5) . . ?
 H7A C7 H7B 108.2 . . ?
 C17 C7 H7A 109.7 . . ?
 C17 C7 H7B 109.7 . . ?
 C24 C7 H7A 109.7 . . ?
 C24 C7 H7B 109.7 . . ?
 C24 C7 C17 110.0(5) . . ?
 N7 C8 H8A 110.6 . . ?
 N7 C8 H8B 110.6 . . ?
 H8A C8 H8B 108.8 . . ?
 C28 C8 N7 105.5(5) . . ?
 C28 C8 H8A 110.6 . . ?
 C28 C8 H8B 110.6 . . ?
 H15A C15 H15B 108.2 . . ?
 C20 C15 H15A 109.7 . . ?
 C20 C15 H15B 109.7 . . ?
 C24 C15 H15A 109.7 . . ?
 C24 C15 H15B 109.7 . . ?
 C24 C15 C20 109.6(5) . . ?
 N7 C17 H17A 109.9 . . ?
 N7 C17 H17B 109.9 . . ?
 C7 C17 N7 108.9(4) . . ?
 C7 C17 H17A 109.9 . . ?
 C7 C17 H17B 109.9 . . ?
 H17A C17 H17B 108.3 . . ?
 N7 C20 H20A 109.8 . . ?
 N7 C20 H20B 109.8 . . ?
 C15 C20 N7 109.5(5) . . ?
 C15 C20 H20A 109.8 . . ?
 C15 C20 H20B 109.8 . . ?
 H20A C20 H20B 108.2 . . ?
 C7 C24 H24 110.5 . . ?
 C15 C24 C7 107.4(5) . . ?
 C15 C24 H24 110.5 . . ?
 C15 C24 C28 106.8(6) . . ?
 C28 C24 C7 111.0(5) . . ?
 C28 C24 H24 110.5 . . ?
 O31 C28 C8 125.6(6) . . ?
 O31 C28 C24 121.1(6) . . ?
 C24 C28 C8 113.3(5) . . ?
 C1 N12 H12A 109.9 . . ?
 C1 N12 C9 111.3(5) . . ?
 C9 N12 H12A 109.9 . . ?
 C10 N12 H12A 109.9 . . ?
 C10 N12 C1 107.4(5) . . ?
 C10 N12 C9 108.3(5) . . ?
 N12 C1 H1A 109.9 . . ?
 N12 C1 H1B 109.9 . . ?
 H1A C1 H1B 108.3 . . ?
 C16 C1 N12 108.7(4) . . ?
 C16 C1 H1A 109.9 . . ?
 C16 C1 H1B 109.9 . . ?
 H5A C5 H5B 108.0 . . ?
 C9 C5 H5A 109.3 . . ?
 C9 C5 H5B 109.3 . . ?
 C26 C5 H5A 109.3 . . ?
 C26 C5 H5B 109.3 . . ?
 C26 C5 C9 111.5(5) . . ?
 N12 C9 H9A 110.0 . . ?
 N12 C9 H9B 110.0 . . ?
 C5 C9 N12 108.3(5) . . ?
 C5 C9 H9A 110.0 . . ?
 C5 C9 H9B 110.0 . . ?
 H9A C9 H9B 108.4 . . ?
 N12 C10 H10A 109.8 . . ?
 N12 C10 H10B 109.8 . . ?
 N12 C10 C18 109.4(5) . . ?
 H10A C10 H10B 108.2 . . ?
 C18 C10 H10A 109.8 . . ?
 C18 C10 H10B 109.8 . . ?
 O34 C16 C1 121.4(5) . . ?
 O34 C16 C26 126.6(5) . . ?
 C26 C16 C1 112.0(4) . . ?
 C10 C18 H18A 109.7 . . ?
 C10 C18 H18B 109.7 . . ?
 C10 C18 C26 109.8(5) . . ?
 H18A C18 H18B 108.2 . . ?
 C26 C18 H18A 109.7 . . ?
 C26 C18 H18B 109.7 . . ?
 C5 C26 C16 104.5(5) . . ?
 C5 C26 C18 108.0(5) . . ?
 C5 C26 H26 111.0 . . ?
 C16 C26 C18 111.1(4) . . ?
 C16 C26 H26 111.0 . . ?
 C18 C26 H26 111.0 . . ?
 C3 N11 H11 109.4 . . ?
 C11 N11 H11 109.4 . . ?
 C11 N11 C3 113.3(7) . . ?
 C25 N11 H11 109.4 . . ?
 C25 N11 C3 102.0(8) . . ?
 C25 N11 C11 113.2(9) . . ?
 N11 C3 H3A 110.8 . . ?
 N11 C3 H3B 110.8 . . ?
 N11 C3 C27 104.7(8) . . ?
 H3A C3 H3B 108.9 . . ?
 C27 C3 H3A 110.8 . . ?
 C27 C3 H3B 110.8 . . ?
 N11 C11 H11A 109.3 . . ?
 N11 C11 H11B 109.3 . . ?
 N11 C11 C13 111.8(9) . . ?
 H11A C11 H11B 107.9 . . ?
 C13 C11 H11A 109.3 . . ?
 C13 C11 H11B 109.3 . . ?
 C11 C13 H13A 109.9 . . ?
 C11 C13 H13B 109.9 . . ?
 C11 C13 C23 108.9(8) . . ?
 H13A C13 H13B 108.3 . . ?
 C23 C13 H13A 109.9 . . ?
 C23 C13 H13B 109.9 . . ?
 H21A C21 H21B 108.1 . . ?
 C23 C21 H21A 109.5 . . ?
 C23 C21 H21B 109.5 . . ?
 C25 C21 H21A 109.5 . . ?
 C25 C21 H21B 109.5 . . ?
 C25 C21 C23 110.7(11) . . ?
 C13 C23 C21 105.0(8) . . ?
 C13 C23 H23 113.2 . . ?
 C21 C23 H23 113.2 . . ?
 C27 C23 C13 103.2(8) . . ?
 C27 C23 C21 108.2(8) . . ?
 C27 C23 H23 113.2 . . ?
 N11 C25 C21 112.9(9) . . ?
 N11 C25 H25A 109.0 . . ?
 N11 C25 H25B 109.0 . . ?
 C21 C25 H25A 109.0 . . ?
 C21 C25 H25B 109.0 . . ?
 H25A C25 H25B 107.8 . . ?
 O39 C27 C3 125.7(8) . . ?
 O39 C27 C23 119.5(9) . . ?
 C3 C27 C23 113.9(7) . . ?

loop_
  _geom_hbond_atom_site_label_D
  _geom_hbond_atom_site_label_H
  _geom_hbond_atom_site_label_A
  _geom_hbond_distance_DH
  _geom_hbond_distance_HA
  _geom_hbond_distance_DA
  _geom_hbond_angle_DHA
  _geom_hbond_site_symmetry_A
  _geom_hbond_publ_flag
 N10 H10 O8 0.98 2.19 2.994(9) 138.9 1_455 yes
 N10 H10 O12 0.98 2.15 3.094(10) 161.6 1_455 yes
 N10 H10 N6 0.98 2.42 3.392(9) 169.4 1_455 yes
 C2 H2A O2 0.97 2.56 3.518(14) 168.5 . yes
 C4 H4A O9 0.97 2.24 3.165(13) 159.4 . yes
 C4 H4A O32 0.97 2.52 3.301(12) 138.0 . yes
 C6 H6B O11 0.97 2.42 3.385(12) 174.3 1_565 yes
 C6 H6B O21 0.97 2.50 3.362(11) 147.5 1_565 yes
 C14 H14B O33 0.97 2.56 3.468(10) 155.8 1_565 yes
 C22 H22A O18 0.97 2.59 3.352(8) 135.3 1_556 yes
 C22 H22A O31 0.97 2.50 3.218(10) 130.3 1_556 yes
 N7 H7 O24 0.98 2.14 3.084(9) 160.4 1_545 yes
 N7 H7 O36 0.98 2.30 3.061(10) 133.5 1_545 yes
 N7 H7 N9 0.98 2.47 3.416(8) 161.7 1_545 yes
 C7 H7B O15 0.97 2.44 3.327(11) 151.1 1_655 yes
 C8 H8A O30 0.97 2.60 3.548(13) 164.3 1_554 yes
 C8 H8B O17 0.97 2.57 3.421(10) 146.8 . yes
 C8 H8B O38 0.97 2.52 3.356(11) 144.0 . yes
 C17 H17A O23 0.97 2.54 3.482(12) 163.8 . yes
 C17 H17B O3 0.97 2.58 3.447(10) 148.8 1_655 yes
 C20 H20A O34 0.97 2.57 3.400(8) 143.4 1_645 yes
 C20 H20B O8 0.97 2.57 3.281(8) 130.5 1_554 yes
 N12 H12A O14 0.98 2.02 2.920(8) 151.7 . yes
 N12 H12A O36 0.98 2.24 3.053(9) 139.6 . yes
 N12 H12A N9 0.98 2.46 3.421(8) 165.3 . yes
 C1 H1A O38 0.97 2.45 3.416(12) 174.8 1_565 yes
 C9 H9A O32 0.97 2.50 3.431(9) 160.8 . yes
 C9 H9B O21 0.97 2.59 3.544(14) 169.3 1_565 yes
 C10 H10A O31 0.97 2.65 3.363(9) 130.3 . yes
 C10 H10B O28 0.97 2.59 3.391(7) 140.4 1_564 yes
 C10 H10B O39 0.97 2.47 3.238(10) 135.5 1_564 yes
 C18 H18A O25 0.97 2.63 3.586(9) 167.5 . yes
 N11 H11 O8 0.98 2.16 2.986(10) 140.9 . yes
 N11 H11 O16 0.98 1.94 2.849(10) 153.0 . yes
 N11 H11 N6 0.98 2.41 3.379(11) 171.5 . yes
 C3 H3A O7 0.97 2.59 3.526(13) 162.8 . yes
 C3 H3B O36 0.97 2.55 3.441(14) 152.4 1_546 yes
 C11 H11A O34 0.97 2.60 3.415(13) 142.0 1_646 yes
 C11 H11B O2 0.97 2.54 3.481(13) 164.7 1_655 yes
 C13 H13B O27 0.97 2.68 3.599(15) 158.7 1_655 yes
 C21 H21A O3 0.97 2.62 3.444(14) 143.2 1_655 yes
 C21 H21B O11 0.97 2.46 3.425(15) 176.7 . yes
 C21 H21B O23 0.97 2.51 3.294(15) 137.7 . yes
 C23 H23 O12 0.98 2.67 3.446(11) 136.5 1_545 yes
 C25 H25A O37 0.97 2.41 3.341(14) 160.0 1_655 yes
 C25 H25B O19 0.97 2.56 3.526(14) 172.0 . yes
 C25 H25B O40 0.97 2.52 3.316(14) 138.9 . yes

loop_
  _geom_torsion_atom_site_label_1
  _geom_torsion_atom_site_label_2
  _geom_torsion_atom_site_label_3
  _geom_torsion_atom_site_label_4
  _geom_torsion
  _geom_torsion_site_symmetry_1
  _geom_torsion_site_symmetry_2
  _geom_torsion_site_symmetry_3
  _geom_torsion_site_symmetry_4
  _geom_torsion_publ_flag
 Dy1 O2 N3 O22 -0.8(8) . . . . ?
 Dy1 O2 N3 O28 177.3(5) . . . . ?
 Dy1 O3 N2 O10 173.1(5) . . . . ?
 Dy1 O3 N2 O29 -1.2(7) . . . . ?
 Dy1 O4 N8 O5 7.1(8) . . . . ?
 Dy1 O4 N8 O18 -179.5(5) . . . . ?
 Dy1 O5 N8 O4 -7.3(8) . . . . ?
 Dy1 O5 N8 O18 179.3(5) . . . . ?
 Dy1 O6 N1 O15 -0.4(7) . . . . ?
 Dy1 O6 N1 O35 173.0(5) . . . . ?
 Dy1 O7 N3 O28 -173.3(6) . . . . ?
 Dy1 O7 N3 O33 4.0(8) . . . . ?
 Dy1 O9 N1 O35 167.3(5) . . . . ?
 Dy1 O9 N1 O37 0.3(7) . . . . ?
 Dy1 O11 N5 O1 -177.3(6) . . . . ?
 Dy1 O11 N5 O17 -12.1(8) . . . . ?
 Dy1 O13 N4 O19 -16.6(9) . . . . ?
 Dy1 O13 N4 O20 177.4(6) . . . . ?
 Dy1 O15 N1 O6 0.4(7) . . . . ?
 Dy1 O15 N1 O35 -171.4(7) . . . . ?
 Dy1 O17 N5 O1 176.0(6) . . . . ?
 Dy1 O17 N5 O11 12.2(8) . . . . ?
 Dy1 O19 N4 O13 16.5(8) . . . . ?
 Dy1 O19 N4 O20 -175.7(5) . . . . ?
 Dy1 O21 N5 O1 176.5(6) . . . . ?
 Dy1 O21 N5 O23 19.7(8) . . . . ?
 Dy1 O22 N3 O2 0.8(8) . . . . ?
 Dy1 O22 N3 O28 -177.1(6) . . . . ?
 Dy1 O23 N5 O1 -174.6(6) . . . . ?
 Dy1 O23 N5 O21 -19.9(8) . . . . ?
 Dy1 O25 N8 O18 178.4(6) . . . . ?
 Dy1 O25 N8 O38 12.3(9) . . . . ?
 Dy1 O26 N2 O10 -176.6(6) . . . . ?
 Dy1 O26 N2 O27 1.3(8) . . . . ?
 Dy1 O27 N2 O10 177.0(5) . . . . ?
 Dy1 O27 N2 O26 -1.3(8) . . . . ?
 Dy1 O29 N2 O3 1.3(7) . . . . ?
 Dy1 O29 N2 O10 -172.8(5) . . . . ?
 Dy1 O32 N4 O20 -172.9(5) . . . . ?
 Dy1 O32 N4 O40 -0.7(7) . . . . ?
 Dy1 O33 N3 O7 -4.0(8) . . . . ?
 Dy1 O33 N3 O28 173.2(6) . . . . ?
 Dy1 O37 N1 O9 -0.2(7) . . . . ?
 Dy1 O37 N1 O35 -169.2(4) . . . . ?
 Dy1 O38 N8 O18 -178.6(5) . . . . ?
 Dy1 O38 N8 O25 -12.2(8) . . . . ?
 Dy1 O40 N4 O20 173.1(5) . . . . ?
 Dy1 O40 N4 O32 0.8(7) . . . . ?
 Cs1 O1 N5 O11 -29(3) 1_545 . . . ?
 Cs1 O1 N5 O17 165.9(19) 1_545 . . . ?
 Cs1 O1 N5 O21 -93(2) 1_545 . . . ?
 Cs1 O1 N5 O23 60(2) 1_545 . . . ?
 Cs1 O10 N2 O3 77.2(15) 1_445 . . . ?
 Cs1 O10 N2 O26 -20.5(18) 1_445 . . . ?
 Cs1 O10 N2 O27 161.6(11) 1_445 . . . ?
 Cs1 O10 N2 O29 -109.0(13) 1_445 . . . ?
 Cs1 O12 N6 O8 133.9(7) . . . . ?
 Cs1 O12 N6 O16 -34.6(6) . . . . ?
 Cs1 O14 N9 O24 39.7(7) . . . . ?
 Cs1 O14 N9 O36 -140.9(6) . . . . ?
 Cs1 O16 N6 O8 -133.2(5) . . . . ?
 Cs1 O16 N6 O12 36.1(7) . . . . ?
 Cs1 O20 N4 O13 40(3) . . . . ?
 Cs1 O20 N4 O19 -126(2) . . . . ?
 Cs1 O20 N4 O32 -45(3) . . . . ?
 Cs1 O20 N4 O40 143(2) . . . . ?
 Cs1 O24 N9 O14 -37.9(7) . . . . ?
 Cs1 O24 N9 O36 142.7(7) . . . . ?
 Cs1 O35 N1 O6 163.9(7) 1_455 . . . ?
 Cs1 O35 N1 O9 76.2(11) 1_455 . . . ?
 Cs1 O35 N1 O15 -24.2(14) 1_455 . . . ?
 Cs1 O35 N1 O37 -116.0(8) 1_455 . . . ?
 N10 C2 C19 O30 172.5(10) . . . . ?
 N10 C2 C19 C12 -0.5(10) . . . . ?
 N10 C4 C6 C12 13.2(10) . . . . ?
 N10 C14 C22 C12 11.2(6) . . . . ?
 C2 N10 C4 C6 -70.2(9) . . . . ?
 C2 N10 C14 C22 53.7(7) . . . . ?
 C4 N10 C2 C19 62.3(9) . . . . ?
 C4 N10 C14 C22 -67.3(6) . . . . ?
 C4 C6 C12 C19 48.6(10) . . . . ?
 C4 C6 C12 C22 -68.7(9) . . . . ?
 C6 C12 C19 O30 129.7(11) . . . . ?
 C6 C12 C19 C2 -57.1(10) . . . . ?
 C6 C12 C22 C14 54.3(7) . . . . ?
 C14 N10 C2 C19 -60.3(9) . . . . ?
 C14 N10 C4 C6 52.6(8) . . . . ?
 C19 C12 C22 C14 -69.4(7) . . . . ?
 C22 C12 C19 O30 -109.9(11) . . . . ?
 C22 C12 C19 C2 63.3(9) . . . . ?
 N7 C8 C28 O31 166.7(8) . . . . ?
 N7 C8 C28 C24 -13.1(8) . . . . ?
 C7 C24 C28 O31 130.9(8) . . . . ?
 C7 C24 C28 C8 -49.2(8) . . . . ?
 C8 N7 C17 C7 -63.6(7) . . . . ?
 C8 N7 C20 C15 70.0(7) . . . . ?
 C15 C24 C28 O31 -112.3(8) . . . . ?
 C15 C24 C28 C8 67.5(7) . . . . ?
 C17 N7 C8 C28 69.8(6) . . . . ?
 C17 N7 C20 C15 -48.3(7) . . . . ?
 C17 C7 C24 C15 -60.9(8) . . . . ?
 C17 C7 C24 C28 55.4(8) . . . . ?
 C20 N7 C8 C28 -52.7(7) . . . . ?
 C20 N7 C17 C7 55.6(7) . . . . ?
 C20 C15 C24 C7 69.3(7) . . . . ?
 C20 C15 C24 C28 -49.8(7) . . . . ?
 C24 C7 C17 N7 0.2(9) . . . . ?
 C24 C15 C20 N7 -13.7(8) . . . . ?
 O34 C16 C26 C5 -123.4(7) . . . . ?
 O34 C16 C26 C18 120.3(7) . . . . ?
 N12 C1 C16 O34 -175.4(6) . . . . ?
 N12 C1 C16 C26 2.7(8) . . . . ?
 N12 C10 C18 C26 13.4(5) . . . . ?
 C1 N12 C9 C5 49.4(8) . . . . ?
 C1 N12 C10 C18 -68.9(5) . . . . ?
 C1 C16 C26 C5 58.6(7) . . . . ?
 C1 C16 C26 C18 -57.6(7) . . . . ?
 C9 N12 C1 C16 -59.0(7) . . . . ?
 C9 N12 C10 C18 51.4(5) . . . . ?
 C9 C5 C26 C16 -69.1(7) . . . . ?
 C9 C5 C26 C18 49.2(7) . . . . ?
 C10 N12 C1 C16 59.3(7) . . . . ?
 C10 N12 C9 C5 -68.4(7) . . . . ?
 C10 C18 C26 C5 -66.0(5) . . . . ?
 C10 C18 C26 C16 48.0(6) . . . . ?
 C26 C5 C9 N12 14.9(9) . . . . ?
 N11 C3 C27 O39 168.9(9) . . . . ?
 N11 C3 C27 C23 -22.5(10) . . . . ?
 N11 C11 C13 C23 -8.3(12) . . . . ?
 C3 N11 C11 C13 63.7(13) . . . . ?
 C3 N11 C25 C21 -68.5(11) . . . . ?
 C11 N11 C3 C27 -44.5(12) . . . . ?
 C11 N11 C25 C21 53.5(12) . . . . ?
 C11 C13 C23 C21 61.1(11) . . . . ?
 C11 C13 C23 C27 -52.2(10) . . . . ?
 C13 C23 C27 O39 -117.1(9) . . . . ?
 C13 C23 C27 C3 73.5(9) . . . . ?
 C21 C23 C27 O39 132.0(9) . . . . ?
 C21 C23 C27 C3 -37.4(11) . . . . ?
 C23 C21 C25 N11 4.2(13) . . . . ?
 C25 N11 C3 C27 77.5(9) . . . . ?
 C25 N11 C11 C13 -51.7(11) . . . . ?
 C25 C21 C23 C13 -61.1(12) . . . . ?
 C25 C21 C23 C27 48.6(12) . . . . ?

_shelx_res_file
;
TITL mo_3OQ_DyCs_0m_a.res in P1
    mo_3oq_dycs_0m_a.res
    created by SHELXL-2019/3 at 15:13:50 on 22-Aug-2025
REM Old TITL Integration of 3OQ_DyCs
REM SHELXT solution in P1: R1 0.106, Rweak 0.016, Alpha 0.000
REM <I/s> 0.000 for 0 systematic absences, Orientation as input
REM Flack x = 0.481 ( 0.008 ) from 3158 Parsons' quotients
REM Formula found by SHELXT: C44 Cs Dy N11 O17
CELL 0.71073 10.0155 10.0666 12.4942 67.255 88.808 89.343
ZERR 1 0.0025 0.0027 0.0037 0.006 0.007 0.006
LATT -1
SFAC C H Cs Dy N O
UNIT 28 48 1 1 12 28
EQIV $1 +X,1+Y,-1+Z
EQIV $2 +X,-1+Y,1+Z
EQIV $3 1+X,-1+Y,1+Z
EQIV $4 +X,-1+Y,+Z
EQIV $5 -1+X,+Y,+Z
EQIV $6 +X,1+Y,+Z
EQIV $7 1+X,+Y,+Z
EQIV $8 +X,+Y,1+Z
EQIV $9 +X,+Y,-1+Z
EQIV $10 1+X,-1+Y,+Z
EQIV $11 1+X,+Y,-1+Z
SIMU 0.01 0.02 2 Dy1 > N9
ISOR 0.004 0.008 O18
ISOR 0.004 0.008 O28
SIMU 0.01 0.02 2 O30 > C22
SIMU 0.01 0.02 2 O34 > C26
SIMU 0.01 0.02 2 O31 > C28
SIMU 0.01 0.02 2 O39 > C27
DFIX 1.5 0.01 C20 C15 C8 C28 C7 C24 C28 C24 C7 C17 N7 C17 N7 C8 N7 C20
DFIX 1.5 0.01 C18 C10 N12 C9 N12 C10 N12 C1 C16 C1 C5 C26 C26 C16 C26 C18 =
 C9 C5
DFIX 1.5 0.01 C22 C12 C22 C14 C6 C12 C6 C4
DFIX 1.5 0.01 N10 C4
DFIX 1.2 0.01 O39 C27
DFIX 1.2 0.01 O30 C19
DELU 0.01 0.02 C19 O30
DELU 0.002 0.004 O18 N8
ISOR 0.002 0.004 O24
DANG 2.5 0.01 O31_$10 O39_$11
DFIX 1.5 0.01 C27 C23

L.S. 80
PLAN  5
SIZE 0.1 0.1 0.11
TEMP 17.85
HTAB N10 O8_$5
HTAB N10 O12_$5
HTAB N10 N6_$5
HTAB C2 O2
HTAB C4 O9
HTAB C4 O32
HTAB C6 O11_$6
HTAB C6 O21_$6
HTAB C14 O33_$6
HTAB C22 O18_$8
HTAB C22 O31_$8
HTAB N7 O24_$4
HTAB N7 O36_$4
HTAB N7 N9_$4
HTAB C7 O15_$7
HTAB C8 O30_$9
HTAB C8 O17
HTAB C8 O38
HTAB C17 O23
HTAB C17 O3_$7
HTAB C20 O34_$10
HTAB C20 O8_$9
HTAB N12 O14
HTAB N12 O36
HTAB N12 N9
HTAB C1 O38_$6
HTAB C9 O32
HTAB C9 O21_$6
HTAB C10 O31
HTAB C10 O28_$1
HTAB C10 O39_$1
HTAB C18 O25
HTAB N11 O8
HTAB N11 O16
HTAB N11 N6
HTAB C3 O36_$2
HTAB C3 O7
HTAB C11 O2_$7
HTAB C11 O34_$3
HTAB C13 O27_$7
HTAB C21 O3_$7
HTAB C21 O11
HTAB C21 O23
HTAB C23 O12_$4
HTAB C25 O37_$7
HTAB C25 O19
HTAB C25 O40
CONF
CONN 8 Cs1
FREE Cs1 N6
CONN 24 Dy1
LIST 4
MORE -1
BOND $H
HTAB
fmap 2
acta
TWIN -1 0 0 0 -1 0 0 0 -1 2
OMIT -5 -5 -14
OMIT -4 -8 -14
REM <olex2.extras>
REM <HklSrc "%.\\mo_3oq_dycs_0m_a.hkl">
REM </olex2.extras>

WGHT    0.035900    1.345100
BASF   0.50271
FVAR       0.48873   0.53096
DY1   4    0.046186    0.478509    0.502691    11.00000    0.02655    0.02526 =
         0.03086   -0.01214    0.00058   -0.00180
CS1   3    0.546559    0.978453    0.501728    11.00000    0.04090    0.03289 =
         0.07547   -0.01436   -0.01685   -0.00226
O1    6    0.337308    0.194713    0.466548    11.00000    0.09543    0.07850 =
         0.11926   -0.03075    0.02908    0.05501
PART 2
O2    6   -0.017229    0.453742    0.711559   -21.00000    0.04267    0.05357 =
         0.03969   -0.01648    0.00107    0.00935
PART 1
O3    6   -0.195241    0.384334    0.529359    21.00000    0.03573    0.04145 =
         0.05994   -0.02417    0.00270   -0.01148
O4    6    0.105429    0.662512    0.298273    21.00000    0.06214    0.04469 =
         0.04943   -0.02312   -0.00407    0.00638
O5    6   -0.055121    0.511422    0.312986    21.00000    0.05320    0.05454 =
         0.04258   -0.02199   -0.00074   -0.00155
O6    6   -0.108276    0.577516    0.615883    21.00000    0.04064    0.04115 =
         0.04717   -0.01848    0.00142    0.00581
O7    6    0.136573    0.442555    0.706841    21.00000    0.05236    0.06588 =
         0.03376   -0.01057    0.00160   -0.00268
PART 0
O8    6    0.706065    0.654084    0.843490    11.00000    0.06787    0.04873 =
         0.06765   -0.00370   -0.02349   -0.00921
PART 2
O9    6   -0.047906    0.704059    0.524132   -21.00000    0.04753    0.03953 =
         0.04795   -0.02655   -0.00498    0.00389
PART 0
O10   6   -0.233683    0.155860    0.541382    11.00000    0.07525    0.06611 =
         0.08706   -0.01929   -0.00256   -0.04419
PART 1
O11   6    0.209189    0.263251    0.574291    21.00000    0.05051    0.05079 =
         0.06728   -0.02327    0.00153    0.00034
PART 0
O12   6    0.657442    0.879085    0.763842    11.00000    0.11317    0.04408 =
         0.09815   -0.03148   -0.01100   -0.00558
PART 2
O13   6    0.185369    0.702271    0.393269   -21.00000    0.05538    0.04884 =
         0.06874   -0.03512    0.00179   -0.00604
PART 0
O14   6    0.409226    1.073384    0.258849    11.00000    0.07978    0.08188 =
         0.07191   -0.03585   -0.00821   -0.00300
PART 1
O15   6   -0.131020    0.676196    0.440907    21.00000    0.04443    0.03600 =
         0.05553   -0.01696   -0.00768    0.01246
PART 0
O16   6    0.516511    0.726426    0.745277    11.00000    0.03563    0.06262 =
         0.09725   -0.02357    0.00510   -0.01135
PART 1
O17   6    0.190554    0.376222    0.380346    21.00000    0.05298    0.04373 =
         0.06575   -0.03070    0.00197   -0.00002
PART 0
O18   6    0.025611    0.675633    0.140208    11.00000    0.11032    0.08105 =
         0.02768   -0.00943   -0.00584   -0.00603
PART 2
O19   6    0.220240    0.610586    0.579086   -21.00000    0.04768    0.05576 =
         0.07927   -0.04746   -0.00018   -0.01721
PART 0
O20   6    0.355315    0.750773    0.511263    11.00000    0.06524    0.07050 =
         0.10642   -0.04205   -0.00167   -0.03447
PART 2
O21   6    0.147226    0.246290    0.504012   -21.00000    0.05587    0.04526 =
         0.07295   -0.02582    0.00674   -0.00592
O22   6    0.151018    0.308530    0.700818   -21.00000    0.04785    0.05719 =
         0.03605   -0.01694    0.00085    0.00709
O23   6    0.283284    0.415030    0.486894   -21.00000    0.05247    0.04490 =
         0.07239   -0.03861   -0.00199    0.00044
PART 0
O24   6    0.567821    1.220066    0.237075    11.00000    0.09992    0.10318 =
         0.10314   -0.03733   -0.00132   -0.00031
PART 2
O25   6   -0.041035    0.648112    0.313862   -21.00000    0.05440    0.04742 =
         0.04360   -0.01485   -0.00673    0.01746
O26   6   -0.112055    0.362724    0.417098   -21.00000    0.03865    0.05172 =
         0.06166   -0.02114    0.00484   -0.01317
O27   6   -0.107044    0.264316    0.602847   -21.00000    0.05159    0.04471 =
         0.05560   -0.01434    0.00402   -0.01204
PART 0
O28   6    0.085869    0.309821    0.868108    11.00000    0.11820    0.10506 =
         0.03976   -0.01369   -0.00879    0.00272
PART 1
O29   6   -0.045134    0.250926    0.507733    21.00000    0.04734    0.03785 =
         0.06479   -0.02838    0.00718   -0.00592
O32   6    0.136200    0.718340    0.509487    21.00000    0.04763    0.04658 =
         0.06573   -0.03958    0.00741   -0.00699
O33   6   -0.005274    0.289923    0.704952    21.00000    0.05628    0.05241 =
         0.04177   -0.00909    0.00375   -0.00341
PART 0
O35   6   -0.260901    0.723581    0.572236    11.00000    0.09754    0.09401 =
         0.09629   -0.03363    0.01937    0.05436
O36   6    0.391971    1.300091    0.160211    11.00000    0.13000    0.09963 =
         0.11063   -0.04547   -0.02567    0.03411
PART 2
O37   6   -0.196651    0.548206    0.537803   -21.00000    0.03655    0.04604 =
         0.05432   -0.02642    0.00599    0.00664
O38   6    0.098402    0.506243    0.299430   -21.00000    0.05382    0.04847 =
         0.04144   -0.02771   -0.00457    0.00910
PART 1
O40   6    0.284677    0.562078    0.495737    21.00000    0.04640    0.05110 =
         0.07796   -0.03757    0.00745   -0.00280
PART 0
N1    5   -0.166564    0.667097    0.538216    11.00000    0.04643    0.04806 =
         0.05889   -0.02562    0.00321    0.02695
N2    5   -0.154667    0.257391    0.522568    11.00000    0.04158    0.03965 =
         0.06373   -0.02147    0.00487   -0.01926
N3    5    0.078627    0.349369    0.764650    11.00000    0.04490    0.05444 =
         0.02938   -0.01485   -0.00582    0.00263
N4    5    0.262338    0.679715    0.501248    11.00000    0.04952    0.05582 =
         0.07890   -0.04266    0.00782   -0.01817
N5    5    0.253179    0.285590    0.471761    11.00000    0.06176    0.05541 =
         0.08346   -0.02961    0.00500    0.01282
N6    5    0.630300    0.756879    0.791257    11.00000    0.05674    0.04504 =
         0.07114   -0.01134    0.00341   -0.01468
N8    5    0.032831    0.617189    0.251283    11.00000    0.06312    0.05681 =
         0.03159   -0.01482   -0.01175    0.00463
N9    5    0.460893    1.201784    0.218526    11.00000    0.05893    0.07401 =
         0.04848   -0.03649   -0.00223    0.00750

O30   6    0.230067    0.585436    0.937317    11.00000    0.17075    0.10890 =
         0.15258    0.00057   -0.00767    0.02080
N10   5   -0.039751    0.821635    0.802730    11.00000    0.09573    0.05988 =
         0.04607   -0.00922   -0.02348    0.00885
AFIX  13
H10   2   -0.136784    0.816673    0.796459    11.00000   -1.20000
AFIX   0
C2    1    0.011364    0.675002    0.869515    11.00000    0.11457    0.04652 =
         0.06978   -0.01672    0.00127    0.00053
AFIX  23
H2A   2   -0.009756    0.611544    0.830376    11.00000   -1.20000
H2B   2   -0.030036    0.636919    0.946247    11.00000   -1.20000
AFIX   0
C4    1    0.022016    0.874458    0.681922    11.00000    0.13032    0.08824 =
         0.02829   -0.00987   -0.01764    0.00226
AFIX  23
H4A   2    0.011790    0.802593    0.648753    11.00000   -1.20000
H4B   2   -0.021581    0.962550    0.631992    11.00000   -1.20000
AFIX   0
C6    1    0.167902    0.901565    0.692069    11.00000    0.12935    0.07995 =
         0.04073    0.00177    0.03447    0.01513
AFIX  23
H6A   2    0.221677    0.859824    0.647448    11.00000   -1.20000
H6B   2    0.184875    1.004316    0.662108    11.00000   -1.20000
AFIX   0
C12   1    0.203498    0.833863    0.817980    11.00000    0.10539    0.06431 =
         0.07315   -0.00587    0.02651    0.01220
AFIX  13
H12   2    0.300505    0.837847    0.824992    11.00000   -1.20000
AFIX   0
C14   1   -0.010569    0.920433    0.860886    11.00000    0.09928    0.05032 =
         0.05340   -0.02880    0.01059    0.02314
AFIX  23
H14A  2   -0.060845    0.892064    0.933435    11.00000   -1.20000
H14B  2   -0.036629    1.017839    0.811899    11.00000   -1.20000
AFIX   0
C19   1    0.158164    0.683002    0.879094    11.00000    0.11559    0.04617 =
         0.07209    0.00095    0.01797    0.00764
C22   1    0.136122    0.914971    0.883848    11.00000    0.10675    0.06215 =
         0.07423   -0.01613    0.00620    0.00640
AFIX  23
H22A  2    0.151790    0.866302    0.966314    11.00000   -1.20000
H22B  2    0.171700    1.011780    0.858061    11.00000   -1.20000
AFIX   0

O31   6    0.355944    0.858100    0.081103    11.00000    0.09992    0.10208 =
         0.12135   -0.02971   -0.04535    0.04002
N7    5    0.533605    0.535232    0.212834    11.00000    0.07282    0.03146 =
         0.05040   -0.00123    0.02074    0.00807
AFIX  13
H7    2    0.524657    0.431947    0.230771    11.00000   -1.20000
AFIX   0
C7    1    0.588610    0.717355    0.292952    11.00000    0.08664    0.06460 =
         0.04610   -0.02854   -0.01579    0.01727
AFIX  23
H7A   2    0.526728    0.748980    0.339126    11.00000   -1.20000
H7B   2    0.678672    0.735336    0.310986    11.00000   -1.20000
AFIX   0
C8    1    0.400650    0.608473    0.175556    11.00000    0.06192    0.06063 =
         0.07099   -0.00751   -0.00800   -0.00559
AFIX  23
H8A   2    0.364381    0.584684    0.113813    11.00000   -1.20000
H8B   2    0.337412    0.579059    0.240297    11.00000   -1.20000
AFIX   0
C15   1    0.663315    0.751154    0.099640    11.00000    0.07637    0.06117 =
         0.07433   -0.00360    0.03097   -0.01096
AFIX  23
H15A  2    0.752270    0.755392    0.127386    11.00000   -1.20000
H15B  2    0.660761    0.813800    0.018063    11.00000   -1.20000
AFIX   0
C17   1    0.570607    0.557600    0.322698    11.00000    0.08871    0.07783 =
         0.03477    0.00649   -0.00205    0.01660
AFIX  23
H17A  2    0.500527    0.520184    0.381220    11.00000   -1.20000
H17B  2    0.652744    0.506400    0.353568    11.00000   -1.20000
AFIX   0
C20   1    0.632507    0.599200    0.114435    11.00000    0.08313    0.06326 =
         0.06554   -0.02385    0.04742    0.01487
AFIX  23
H20A  2    0.713841    0.542120    0.130717    11.00000   -1.20000
H20B  2    0.595780    0.598640    0.043383    11.00000   -1.20000
AFIX   0
C24   1    0.563723    0.800615    0.166038    11.00000    0.06845    0.03649 =
         0.06236   -0.03335   -0.01581    0.00962
AFIX  13
H24   2    0.572697    0.904254    0.146491    11.00000   -1.20000
AFIX   0
C28   1    0.428236    0.767201    0.133542    11.00000    0.06565    0.05774 =
         0.06905   -0.02157   -0.03215    0.02914

O34   6   -0.142528    1.372220    0.066007    11.00000    0.07741    0.04845 =
         0.07437   -0.01759   -0.01160    0.03907
N12   5    0.126048    1.140252    0.215626    11.00000    0.03584    0.05311 =
         0.07405   -0.03541   -0.01487    0.00055
AFIX  13
H12A  2    0.220055    1.149207    0.231958    11.00000   -1.20000
AFIX   0
C1    1    0.067344    1.286915    0.150253    11.00000    0.05915    0.04316 =
         0.08468   -0.02453   -0.01062   -0.00459
AFIX  23
H1A   2    0.072208    1.345045    0.196447    11.00000   -1.20000
H1B   2    0.117240    1.335096    0.078412    11.00000   -1.20000
AFIX   0
C5    1   -0.095999    1.069485    0.301736    11.00000    0.06490    0.06461 =
         0.08353   -0.02151    0.01313    0.00931
AFIX  23
H5A   2   -0.136230    0.975760    0.342608    11.00000   -1.20000
H5B   2   -0.139278    1.137295    0.329277    11.00000   -1.20000
AFIX   0
C9    1    0.049414    1.061259    0.328033    11.00000    0.08155    0.06462 =
         0.06075   -0.03148   -0.00500   -0.00096
AFIX  23
H9A   2    0.078076    0.961429    0.361809    11.00000   -1.20000
H9B   2    0.066101    1.105270    0.383152    11.00000   -1.20000
AFIX   0
C10   1    0.115071    1.056180    0.140563    11.00000    0.05306    0.06650 =
         0.07776   -0.03518   -0.00724    0.01228
AFIX  23
H10A  2    0.165017    0.966865    0.173909    11.00000   -1.20000
H10B  2    0.152391    1.111128    0.064030    11.00000   -1.20000
AFIX   0
C16   1   -0.075427    1.269583    0.124532    11.00000    0.04785    0.03500 =
         0.06973   -0.02752    0.00079    0.01297
C18   1   -0.029990    1.023908    0.130942    11.00000    0.06295    0.04749 =
         0.07785   -0.04796   -0.02248    0.00926
AFIX  23
H18A  2   -0.047374    0.922759    0.176033    11.00000   -1.20000
H18B  2   -0.050158    1.043969    0.050559    11.00000   -1.20000
AFIX   0
C26   1   -0.118092    1.115651    0.175309    11.00000    0.03260    0.04474 =
         0.07263   -0.02999   -0.01229    0.00482
AFIX  13
H26   2   -0.212291    1.106359    0.159743    11.00000   -1.20000
AFIX   0

O39   6    0.368561    0.115132    0.963420    11.00000    0.11018    0.13477 =
         0.17951   -0.01265    0.03025   -0.04446
N11   5    0.553645    0.426073    0.801556    11.00000    0.07648    0.07719 =
         0.12309   -0.02785   -0.01964   -0.00584
AFIX  13
H11   2    0.565877    0.524560    0.797043    11.00000   -1.20000
AFIX   0
C3    1    0.431014    0.364646    0.870073    11.00000    0.07674    0.10293 =
         0.11378   -0.03979   -0.00646    0.00133
AFIX  23
H3A   2    0.351957    0.406615    0.825835    11.00000   -1.20000
H3B   2    0.428161    0.381725    0.941360    11.00000   -1.20000
AFIX   0
C11   1    0.674903    0.340195    0.849432    11.00000    0.06896    0.09440 =
         0.14347   -0.01794   -0.03224   -0.01477
AFIX  23
H11A  2    0.685606    0.331275    0.928910    11.00000   -1.20000
H11B  2    0.752454    0.390004    0.804739    11.00000   -1.20000
AFIX   0
C13   1    0.667814    0.193623    0.846722    11.00000    0.07445    0.10335 =
         0.12834   -0.02907   -0.02184    0.00548
AFIX  23
H13A  2    0.687445    0.121238    0.922732    11.00000   -1.20000
H13B  2    0.733232    0.184787    0.791480    11.00000   -1.20000
AFIX   0
C21   1    0.511098    0.289513    0.688350    11.00000    0.09796    0.11710 =
         0.12639   -0.02954   -0.00766    0.00365
AFIX  23
H21A  2    0.579165    0.278128    0.636142    11.00000   -1.20000
H21B  2    0.424497    0.279161    0.659149    11.00000   -1.20000
AFIX   0
C23   1    0.528946    0.170717    0.811819    11.00000    0.07866    0.09792 =
         0.12547   -0.03901   -0.01070    0.00014
AFIX  13
H23   2    0.514888    0.073114    0.814897    11.00000   -1.20000
AFIX   0
C25   1    0.521188    0.430068    0.691160    11.00000    0.09685    0.10505 =
         0.12765   -0.01124   -0.00964    0.01178
AFIX  23
H25A  2    0.589049    0.484279    0.635318    11.00000   -1.20000
H25B  2    0.436776    0.480224    0.667968    11.00000   -1.20000
AFIX   0
C27   1    0.439622    0.207483    0.895463    11.00000    0.07722    0.10525 =
         0.12242   -0.01653   -0.00001   -0.03252
HKLF 4




REM  mo_3OQ_DyCs_0m_a.res in P1
REM wR2 = 0.1006, GooF = S = 1.043, Restrained GooF = 1.079 for all data
REM R1 = 0.0409 for 7566 Fo > 4sig(Fo) and 0.0550 for all 8858 data
REM 741 parameters refined using 727 restraints

END

WGHT      0.0358      1.3535

REM Instructions for potential hydrogen bonds
HTAB N10 O8_$5
HTAB N10 O12_$5
HTAB N10 N6_$5
HTAB C2 O2
HTAB C4 O9
HTAB C4 O32
HTAB C6 O11_$6
HTAB C6 O21_$6
HTAB C14 O33_$6
HTAB C22 O18_$8
HTAB C22 O31_$8
HTAB N7 O24_$4
HTAB N7 O36_$4
HTAB N7 N9_$4
HTAB C7 O15_$7
HTAB C8 O30_$9
HTAB C8 O4
HTAB C8 O17
HTAB C8 O38
HTAB C17 O23
HTAB C17 O3_$7
HTAB C20 O34_$10
HTAB C20 O8_$9
HTAB N12 O14
HTAB N12 O36
HTAB N12 N9
HTAB C1 O38_$6
HTAB C9 O32
HTAB C9 O21_$6
HTAB C10 O31
HTAB C10 O28_$1
HTAB C10 O39_$1
HTAB C18 O25
HTAB N11 O8
HTAB N11 O16
HTAB N11 N6
HTAB C3 O7
HTAB C3 O36_$2
HTAB C11 O34_$3
HTAB C11 O2_$7
HTAB C21 O3_$7
HTAB C21 O11
HTAB C21 O23
HTAB C25 O37_$7
HTAB C25 O19
HTAB C25 O40

REM Highest difference peak  2.114,  deepest hole -0.795,  1-sigma level  0.107
Q1    1  -0.0219  0.5468  0.5027  11.00000  0.05    2.11
Q2    1   0.1157  0.4170  0.5015  11.00000  0.05    2.07
Q3    1   0.6062  0.9039  0.5175  11.00000  0.05    1.47
Q4    1   0.4860  1.0561  0.4884  11.00000  0.05    1.46
Q5    1   0.4326  0.1586  0.6648  11.00000  0.05    0.68
;
_shelx_res_checksum                95026
_shelx_hkl_file
;
   1   0   0  460.78   29.65
  -2   0   0 5894.63  348.95
   2   0   0 5959.80  349.26
  -3   0   0    0.26    3.96
  -3   0   0    3.67    1.31
  -3   0   0    3.29    1.59
  -3   0   0    1.18    2.50
   3   0   0   -1.03    4.09
   3   0   0    3.86    1.20
   3   0   0    0.63    1.81
   3   0   0    3.73    1.68
   3   0   0    1.84    2.84
  -4   0   0 1220.89   81.37
   4   0   0 1179.91   81.65
  -5   0   0    2.28    6.61
  -5   0   0    2.01    2.99
  -5   0   0    1.36    1.45
  -5   0   0    1.48    1.36
   5   0   0    5.51    2.94
   5   0   0    1.97    1.39
   5   0   0   -2.76    3.44
   5   0   0    3.23    2.93
   5   0   0    3.09    2.26
  -6   0   0 1409.13   90.03
  -6   0   0 1281.45   94.22
  -6   0   0 1408.19   84.31
   6   0   0 1274.50   85.31
   6   0   0 1325.12   83.27
  -7   0   0    9.56    8.07
  -7   0   0   32.09   14.46
  -7   0   0    8.90    4.37
   7   0   0    3.70    4.63
   7   0   0   17.29    4.68
   7   0   0    8.53    4.77
   7   0   0    1.77    4.85
   7   0   0    5.61    1.92
  -8   0   0  574.43   53.62
  -8   0   0  556.19   39.69
  -8   0   0  566.62   46.85
   8   0   0  564.88   37.92
   8   0   0  539.85   39.44
   8   0   0  491.92   33.83
   8   0   0  569.03   41.99
   8   0   0  595.68   43.02
  -9   0   0   23.87   13.55
  -9   0   0   14.82   15.33
  -9   0   0   14.73    6.09
   9   0   0    7.93    7.13
   9   0   0   14.09    8.52
   9   0   0   20.50    7.37
   9   0   0   15.48    2.99
   9   0   0   -0.71    3.65
 -10   0   0  328.92   47.30
 -10   0   0  338.85   27.51
 -10   0   0  376.26   38.93
  10   0   0  283.01   29.47
  10   0   0  306.96   20.52
  10   0   0  285.18   27.37
  10   0   0  298.84   27.55
  10   0   0  353.01   31.90
 -11   0   0   20.84   23.01
 -11   0   0   16.31   19.67
  11   0   0   23.47    9.74
  11   0   0   31.91   10.39
  11   0   0   21.04    3.09
  11   0   0   12.85    8.33
 -12   0   0  138.31   30.24
  12   0   0  142.21    9.94
  12   0   0  173.42   23.54
  12   0   0  139.59   25.02
  12   0   0  160.24   21.23
  12  -1   0    4.88    8.44
  12  -1   0   14.20    9.33
  12  -1   0    1.90    7.29
 -12   1   0  -22.18   22.33
  11  -1   0  162.15   24.94
  11  -1   0  156.77   11.20
  11  -1   0  212.65   24.26
  11  -1   0  204.94   22.19
 -11   1   0  144.40   39.23
 -11   1   0  233.36   38.68
  10  -1   0    3.13    1.60
  10  -1   0   12.08    8.04
  10  -1   0   -2.77    6.59
  10  -1   0    7.30    7.09
 -10   1   0    5.82   16.38
 -10   1   0  -17.36   20.26
 -10   1   0    1.46    5.12
   9  -1   0  459.62   35.49
   9  -1   0  500.39   38.41
   9  -1   0  487.33   40.22
   9  -1   0  382.28   38.31
   9  -1   0  518.41   30.26
  -9   1   0  617.13   51.36
  -9   1   0  561.65   57.95
  -9   1   0  455.36   38.03
   8  -1   0   36.31    4.19
   8  -1   0   31.37   10.85
   8  -1   0   40.90    9.93
   8  -1   0   38.08   10.12
   8  -1   0   48.14    9.03
  -8   1   0   32.30    5.30
  -8   1   0   41.10    9.83
  -8   1   0   25.62    4.45
  -8   1   0   32.86   13.81
  -8   1   0   21.73   17.27
   7  -1   0  609.93   37.12
   7  -1   0  619.21   45.51
   7  -1   0  571.66   41.12
   7  -1   0  633.64   43.48
   7  -1   0  611.31   44.51
  -7   1   0  699.95   59.69
  -7   1   0  553.15   50.44
  -7   1   0  648.34   39.16
  -7   1   0  569.02   43.52
   6  -1   0   13.64    5.16
   6  -1   0   13.62    5.27
   6  -1   0   12.91    4.53
   6  -1   0   13.51    6.62
   6  -1   0   12.84    2.31
  -6   1   0   18.86    6.35
  -6   1   0   11.25    3.65
  -6   1   0   20.82    9.77
  -6   1   0   16.79    3.90
  -6   1   0    1.91    9.53
   5  -1   0 1268.80   81.62
   5  -1   0 1185.69   79.44
   5  -1   0 1261.50   80.60
  -5   1   0 1185.72   85.55
  -5   1   0 1389.82   81.71
  -5   1   0 1375.45   78.06
  -5   1   0 1252.37   91.50
   4  -1   0   80.76    8.31
   4  -1   0   91.27   11.21
   4  -1   0   86.02    9.21
   4  -1   0   77.64    6.19
  -4   1   0   65.54   15.17
  -4   1   0   69.80   13.06
  -4   1   0  116.14    8.67
  -4   1   0  102.15    6.68
   3  -1   0  311.58   22.15
   3  -1   0  339.75   20.30
  -3   1   0  344.18   30.67
  -3   1   0  353.18   22.65
  -3   1   0  323.60   21.89
  -2   1   0  523.31   36.47
  -2   1   0  643.47   43.44
  -2   1   0  560.25   35.45
  -1   1   0 1759.05  109.55
  -1   1   0 1760.31  106.64
   0  -1   0  641.84   39.99
   0   1   0  635.72   39.89
   1   1   0 2910.14  170.00
  -2  -1   0   99.59    7.72
   2   1   0   98.49    7.65
   2   1   0   77.72    7.53
  -3  -1   0 3176.90  185.52
   3   1   0 3062.46  185.81
  -4  -1   0  600.48   40.09
   4   1   0  488.47   35.76
   4   1   0  568.15   34.37
   4   1   0  592.85   40.60
   4   1   0  575.60   37.34
  -5  -1   0 2494.87  154.67
  -6  -1   0  195.63   21.62
  -6  -1   0  185.51   18.19
   6   1   0  166.28   13.77
   6   1   0  140.42   12.26
   6   1   0  179.93   16.70
   6   1   0  169.77   15.87
   6   1   0  183.31   12.55
  -7  -1   0  624.75   45.81
  -7  -1   0  627.50   49.50
   7   1   0  630.92   44.17
   7   1   0  596.85   42.38
   7   1   0  598.08   37.73
   7   1   0  575.18   38.71
   7   1   0  600.62   40.23
  -8  -1   0   80.92   19.34
  -8  -1   0   77.13   14.80
   8   1   0   65.83    6.46
   8   1   0   52.05    8.61
   8   1   0   63.14   10.28
   8   1   0   67.33   12.98
   8   1   0   63.98   13.14
  -9  -1   0  440.57   38.35
  -9  -1   0  464.29   43.58
   9   1   0  407.66   31.16
   9   1   0  394.92   26.56
   9   1   0  386.12   33.10
   9   1   0  441.45   35.63
   9   1   0  382.25   29.19
 -10  -1   0   86.30   21.99
 -10  -1   0   16.85   12.60
  10   1   0   26.28   10.01
  10   1   0   32.42    7.17
  10   1   0   38.53    9.25
  10   1   0   30.75    4.69
  10   1   0   36.39   10.81
 -11  -1   0  176.72   31.36
 -11  -1   0  138.62   25.18
  11   1   0  178.56   21.23
  11   1   0  172.64   12.79
  11   1   0  211.31   28.20
 -12  -1   0   29.94   18.86
 -12  -1   0   -0.58   23.27
  12   1   0   16.01    3.10
  12   1   0   32.72   10.46
  12   1   0   12.58   10.40
  12   1   0   12.78    7.91
  12  -2   0  160.40   27.04
  12  -2   0  210.80   30.38
  12  -2   0  181.13   27.06
  11  -2   0    9.06    9.91
  11  -2   0   15.94    9.68
  11  -2   0    2.40    7.15
 -11   2   0   49.57   32.70
 -11   2   0  -15.81   21.40
  10  -2   0  130.54   21.78
  10  -2   0  157.28   25.22
  10  -2   0  145.93   22.05
  10  -2   0  148.87   10.41
 -10   2   0  103.62   35.42
 -10   2   0  274.07   42.15
 -10   2   0  155.66   13.31
   9  -2   0    3.28    5.77
   9  -2   0    6.79    1.87
   9  -2   0    9.47    6.49
   9  -2   0    1.49    7.68
  -9   2   0    0.64    3.94
  -9   2   0  -16.95   19.46
  -9   2   0    5.81    3.70
  -9   2   0    5.06    7.22
  -9   2   0   14.61   14.92
   8  -2   0  486.16   37.95
   8  -2   0  493.91   38.52
   8  -2   0  448.38   39.99
   8  -2   0  465.31   29.64
   8  -2   0  452.42   35.19
  -8   2   0  435.48   38.35
  -8   2   0  513.30   57.11
  -8   2   0  531.43   33.02
  -8   2   0  525.42   48.50
  -8   2   0  485.06   33.37
   7  -2   0    6.92    6.99
   7  -2   0    4.06    1.63
   7  -2   0    7.95    4.78
   7  -2   0    4.43    5.38
   7  -2   0   12.53    5.84
  -7   2   0    2.54    2.20
  -7   2   0    3.32    3.17
  -7   2   0   -1.00    9.12
  -7   2   0    8.84    4.41
  -7   2   0   -2.46   14.30
  -7   2   0    6.09    6.59
   6  -2   0 1054.01   67.03
   6  -2   0 1023.88   70.81
   6  -2   0 1040.54   68.76
   6  -2   0 1053.66   68.88
  -6   2   0 1100.56   85.46
  -6   2   0 1098.34   66.49
  -6   2   0  963.52   69.79
   5  -2   0   30.77    6.64
   5  -2   0   33.15    7.82
   5  -2   0   26.33    3.46
   5  -2   0   28.30    9.13
  -5   2   0   40.90    7.61
  -5   2   0   29.42   13.94
  -5   2   0   16.40    9.43
  -5   2   0   36.04    6.74
  -5   2   0   30.81    3.97
  -5   2   0   40.43   10.00
  -4   2   0 1680.19  100.88
  -4   2   0 1703.82  115.68
  -4   2   0 1574.35  108.61
   3  -2   0    9.27    4.14
   3  -2   0    9.82    5.12
   3  -2   0   12.93    2.16
   3  -2   0    7.95    3.00
  -3   2   0   10.33    5.39
  -3   2   0    9.83    1.94
  -3   2   0    7.95    6.17
  -3   2   0   10.33    3.86
  -3   2   0    7.54    8.01
  -3   2   0    8.20    3.29
  -2   2   0 2301.42  142.75
  -2   2   0 2291.24  147.97
   1  -2   0  125.24   10.37
   1  -2   0  126.87    9.97
   1  -2   0  131.22   11.70
  -1   2   0  125.37    8.57
  -1   2   0  117.38   10.36
  -1   2   0  115.78   13.17
  -1   2   0  112.23   11.16
  -1   2   0  123.31    9.81
   0  -2   0   38.19    5.17
   0  -2   0   26.03    6.35
   0   2   0   31.91    4.81
   0   2   0   26.80    5.76
  -1  -2   0  307.30   19.80
  -1  -2   0  327.65   19.88
  -1  -2   0  315.95   22.65
   1   2   0  330.26   20.32
   1   2   0  320.26   20.34
   1   2   0  325.48   22.50
  -2  -2   0 3813.38  206.07
   2   2   0 3198.77  205.94
   3   2   0    1.41    2.26
   3   2   0   14.02    3.40
  -4  -2   0 2411.73  135.55
   4   2   0 2125.80  135.81
  -5  -2   0   19.83    5.82
   5   2   0   27.76    2.66
   5   2   0   12.20    4.87
   5   2   0   13.94    5.70
   5   2   0   19.23    3.12
  -6  -2   0  724.39   50.45
   6   2   0  728.46   45.88
   6   2   0  761.98   44.83
   6   2   0  746.78   50.35
  -7  -2   0   33.34    8.19
  -7  -2   0   31.14    9.69
   7   2   0   38.36    6.38
   7   2   0   33.00    5.53
   7   2   0   38.55    8.36
   7   2   0   35.86    5.19
   7   2   0   42.55    9.36
  -8  -2   0  797.93   55.09
  -8  -2   0  844.70   58.28
   8   2   0  774.02   50.19
   8   2   0  762.54   53.92
   8   2   0  851.33   57.22
   8   2   0  805.50   50.33
   8   2   0  806.96   51.97
  -9  -2   0   11.59   10.55
  -9  -2   0   15.88    9.16
   9   2   0   38.74    9.48
   9   2   0   31.35    5.21
   9   2   0   33.85    6.42
   9   2   0   24.03    6.62
   9   2   0   25.24    8.63
 -10  -2   0  269.74   29.09
 -10  -2   0  233.99   24.87
  10   2   0  249.90   17.84
  10   2   0  232.23   21.30
  10   2   0  238.83   19.78
  10   2   0  249.21   25.85
  10   2   0  237.43   23.36
 -11  -2   0    5.88   14.06
 -11  -2   0   23.82   11.32
  11   2   0   24.60    9.11
  11   2   0   26.14    4.54
  11   2   0    9.17    6.40
  11   2   0   11.57    9.00
  11   2   0   10.27    5.28
 -12  -2   0  139.21   22.54
 -12  -2   0  136.87   20.33
  12   2   0  179.79   19.26
  12   2   0  157.77   12.43
  12   2   0  160.21   25.39
  12   2   0  164.48   20.39
  12  -3   0   56.41   15.72
  12  -3   0   25.23   12.69
  12  -3   0   38.45   14.29
 -12   3   0    8.81   30.50
  11  -3   0  124.25   23.28
  11  -3   0  162.91   27.58
  11  -3   0  164.08   25.97
 -11   3   0  109.03   42.01
 -11   3   0  158.31   13.76
  10  -3   0   20.96    9.28
  10  -3   0   17.62   10.84
  10  -3   0   26.00    9.90
 -10   3   0   27.31   22.59
 -10   3   0  -10.89   29.22
 -10   3   0   20.21    5.90
 -10   3   0   16.81    6.24
   9  -3   0  147.66   23.07
   9  -3   0  164.46   11.95
   9  -3   0  182.12   27.60
   9  -3   0  205.27   26.27
  -9   3   0  164.48   35.26
  -9   3   0  198.13   17.63
  -9   3   0  167.76   15.92
  -9   3   0  124.79   39.57
   8  -3   0   69.84   16.74
   8  -3   0   62.35   14.09
   8  -3   0   59.04   13.05
   8  -3   0   54.55    5.32
  -8   3   0   58.54    6.95
  -8   3   0   43.92   24.08
  -8   3   0   51.09    9.91
  -8   3   0   91.54   12.37
  -8   3   0   59.47   13.40
   7  -3   0  888.36   59.03
   7  -3   0  790.77   61.43
   7  -3   0  854.78   59.50
   7  -3   0  799.41   50.60
   7  -3   0  799.58   56.59
  -7   3   0  860.65   55.16
  -7   3   0  952.16   81.41
  -7   3   0  764.81   60.16
  -7   3   0  922.07   56.69
  -7   3   0  774.18   68.09
  -7   3   0  861.96   51.27
   6  -3   0    0.83    6.42
   6  -3   0    4.57    5.40
   6  -3   0    0.48    3.32
   6  -3   0    2.81    4.26
   6  -3   0    2.54    1.63
  -6   3   0    5.61   14.86
  -6   3   0   11.98    8.44
  -6   3   0   -2.72    2.97
  -6   3   0    0.06    3.74
  -6   3   0    6.74    7.57
  -6   3   0    2.54    1.91
   5  -3   0  453.82   34.13
   5  -3   0  491.26   30.07
   5  -3   0  478.34   38.42
   5  -3   0  458.98   35.90
  -5   3   0  465.61   37.88
  -5   3   0  476.67   33.82
  -5   3   0  524.81   35.20
  -5   3   0  455.82   43.54
  -5   3   0  484.02   51.13
  -5   3   0  500.01   30.25
   4  -3   0   16.58    6.32
   4  -3   0   18.59    3.19
   4  -3   0   16.78    7.87
   4  -3   0   20.51    5.65
  -4   3   0   14.33    5.30
  -4   3   0   18.18    9.73
  -4   3   0   18.43    3.27
  -4   3   0   26.25    8.69
  -4   3   0   25.42   13.53
  -4   3   0   17.79    6.03
   3  -3   0  945.43   63.09
   3  -3   0 1082.78   66.16
   3  -3   0  912.64   61.53
  -3   3   0 1003.03   65.27
  -3   3   0  971.22   62.51
  -3   3   0  953.52   70.17
  -3   3   0  959.76   77.03
   2  -3   0   25.42    6.18
   2  -3   0   33.98    8.64
   2  -3   0   37.96    6.52
  -2   3   0   25.99    3.92
  -2   3   0   37.82   10.38
  -2   3   0   25.45   11.26
  -2   3   0   29.34    7.58
  -2   3   0   29.13    6.49
  -2   3   0   37.66    6.46
   1  -3   0  654.96   46.52
   1  -3   0  698.71   45.01
   1  -3   0  710.32   44.15
  -1   3   0  696.22   44.76
  -1   3   0  730.16   42.54
  -1   3   0  663.65   46.33
  -1   3   0  697.42   44.35
   0  -3   0   92.56    8.63
   0  -3   0  102.78    6.94
   0  -3   0  119.11   11.66
   0  -3   0  114.09    9.70
   0  -3   0   97.62   12.64
   0   3   0  111.90   11.40
   0   3   0  103.22    9.42
   0   3   0   80.42    8.54
   0   3   0   80.28   11.50
  -1  -3   0  269.79   17.12
  -1  -3   0  289.06   18.79
  -1  -3   0  283.33   18.64
  -1  -3   0  241.66   22.09
   1   3   0  342.33   22.08
   1   3   0  261.92   17.15
   1   3   0  277.96   18.99
   1   3   0  290.20   19.32
  -2  -3   0    8.96    4.07
   2   3   0   20.53    3.19
   2   3   0   22.25    3.78
   2   3   0   18.55    4.52
   2   3   0   14.85    3.15
  -3  -3   0 2288.66  135.45
   3   3   0 2240.25  136.11
  -4  -3   0  151.89   11.70
   4   3   0  155.63    9.81
   4   3   0  137.79    9.60
   4   3   0  178.12   13.34
   4   3   0  145.56   12.75
  -5  -3   0  704.29   44.35
   5   3   0  741.20   45.51
   5   3   0  787.87   48.25
   5   3   0  699.48   43.35
  -6  -3   0    1.18    2.04
  -6  -3   0   -0.11    1.99
   6   3   0    1.62    1.81
   6   3   0    0.56    2.63
   6   3   0    4.11    4.09
  -7  -3   0  761.61   48.53
  -7  -3   0  772.05   48.50
   7   3   0  813.44   48.07
   7   3   0  876.13   52.58
   7   3   0  783.67   54.43
   7   3   0  775.63   49.38
  -8  -3   0   12.46    3.32
  -8  -3   0   10.56    3.64
   8   3   0   11.03    6.34
   8   3   0   12.09    5.91
   8   3   0   14.08    3.54
   8   3   0    6.82    3.83
   9   3   0  277.45   27.25
   9   3   0  294.91   21.82
   9   3   0  309.81   25.40
   9   3   0  271.28   22.52
   9   3   0  314.08   21.24
  10   3   0   24.21    5.31
  10   3   0   25.45    8.44
  10   3   0   21.88    5.61
  10   3   0   29.90   10.52
  10   3   0   30.98    7.92
  11   3   0  198.72   16.72
  11   3   0  219.09   18.38
  11   3   0  245.79   21.11
  11   3   0  209.49   28.76
  11   3   0  200.38   21.11
  12   3   0   18.03    7.18
  12   3   0   16.87    4.75
  12   3   0   11.74    9.50
  12   3   0   31.07    9.06
  11  -4   0   12.41   10.35
  11  -4   0   12.24   11.20
  11  -4   0    6.88    8.61
 -11   4   0   57.47   44.20
 -11   4   0    1.69   27.10
 -11   4   0   -1.45    4.47
 -11   4   0    9.93    5.70
  10  -4   0  240.59   27.59
  10  -4   0  283.30   30.09
  10  -4   0  277.03   33.05
 -10   4   0  328.44   63.10
 -10   4   0  271.29   23.53
 -10   4   0  274.71   24.56
   9  -4   0   30.22    9.96
   9  -4   0   34.53   11.58
   9  -4   0   23.92   10.88
  -9   4   0   41.13    9.54
  -9   4   0  -53.53   27.98
  -9   4   0   34.35    9.05
  -9   4   0   45.26   23.23
  -9   4   0   27.02    4.85
   8  -4   0  375.14   37.26
   8  -4   0  391.98   33.74
   8  -4   0  375.72   34.37
  -8   4   0  469.21   61.45
  -8   4   0  361.43   30.99
  -8   4   0  375.53   47.43
  -8   4   0  412.69   30.76
  -8   4   0  390.05   25.88
   7  -4   0  101.70   17.50
   7  -4   0   78.01   17.72
   7  -4   0   79.97   14.10
  -7   4   0   96.74   23.74
  -7   4   0   95.54   18.19
  -7   4   0   61.72   11.71
  -7   4   0   80.80   13.50
  -7   4   0   80.01   30.14
  -7   4   0   68.44    7.19
   6  -4   0  816.38   54.51
   6  -4   0  837.30   55.02
   6  -4   0  664.65   55.25
   6  -4   0  732.26   58.66
  -6   4   0  726.78   57.99
  -6   4   0  954.85   82.50
  -6   4   0  807.98   48.74
  -6   4   0  829.96   68.42
  -6   4   0  811.61   53.68
  -6   4   0  791.46   54.25
   5  -4   0    7.93    4.94
   5  -4   0    1.12    5.11
   5  -4   0    3.54    7.27
  -5   4   0   -0.81    9.07
  -5   4   0    2.77    4.26
  -5   4   0    7.85    6.42
  -5   4   0    9.44    5.06
  -5   4   0    5.12   16.01
  -5   4   0    4.91    2.34
   4  -4   0 1364.17   90.17
   4  -4   0 1340.61   87.40
   4  -4   0 1335.66   85.30
  -4   4   0 1447.55  107.36
  -4   4   0 1344.80   96.44
  -4   4   0 1279.58   88.98
  -4   4   0 1375.77   86.18
   3  -4   0   16.42    5.34
   3  -4   0   17.35    7.92
   3  -4   0   15.22    6.27
  -3   4   0   14.78    5.40
  -3   4   0   14.29    3.27
  -3   4   0    5.68   11.99
  -3   4   0    1.31    6.13
  -3   4   0    8.96    6.87
  -3   4   0   15.08    5.65
   2  -4   0 1533.51   95.08
   2  -4   0 1659.04   97.26
  -2   4   0 1408.21   95.51
  -2   4   0 1682.06  115.02
  -2   4   0 1551.43   98.92
  -2   4   0 1489.67  103.99
   1  -4   0    4.86    3.97
   1  -4   0    2.24    4.26
   1  -4   0    3.87    3.13
  -1   4   0    2.43    3.34
  -1   4   0    2.65    1.85
  -1   4   0   -2.89    7.80
  -1   4   0   -2.35    2.46
  -1   4   0    5.26    6.22
  -1   4   0    1.66    3.82
   0  -4   0 1496.11   99.05
   0   4   0 1333.97   91.93
   0   4   0 1684.46   95.93
   0   4   0 1529.47   98.93
  -1  -4   0   49.29    6.98
  -1  -4   0   40.65    3.44
  -1  -4   0   56.30    7.25
  -1  -4   0   39.78    9.87
   1   4   0   37.08    6.76
   1   4   0   53.09   10.19
   1   4   0   43.35    6.79
   1   4   0   56.93   10.13
  -2  -4   0 2964.55  176.89
   2   4   0 2832.01  175.57
  -3  -4   0   30.80    7.11
   3   4   0   29.07    7.09
   3   4   0   24.54    4.29
   3   4   0   26.65    4.64
   3   4   0   20.93    4.29
  -4  -4   0 1290.85   75.96
   4   4   0 1133.26   76.40
  -5  -4   0    0.56    2.27
   5   4   0    3.12    2.05
   5   4   0    1.38    1.52
   5   4   0    4.08    3.16
   5   4   0    2.23    3.16
   6   4   0  402.70   32.27
   6   4   0  395.22   28.27
   6   4   0  522.35   27.86
   7   4   0    0.77    3.92
   7   4   0   -1.09    2.20
   7   4   0   -2.26    2.62
   8   4   0  363.60   23.17
   8   4   0  372.46   30.37
   8   4   0  338.75   24.66
   8   4   0  367.79   27.59
   9   4   0   22.55    7.22
   9   4   0   19.97    4.31
   9   4   0   23.38    5.83
   9   4   0   24.60    9.02
  10   4   0  340.26   23.00
  10   4   0  288.78   26.37
  10   4   0  334.79   30.85
  10   4   0  313.20   24.03
  10   4   0  342.73   25.24
  11   4   0    4.89    4.31
  11   4   0    9.97    5.96
  11   4   0   32.96   10.50
  11   4   0    9.15    6.66
  11  -5   0  137.34   25.05
  11  -5   0  119.03   22.25
  11  -5   0  149.37   28.66
 -11   5   0  144.72   18.43
 -11   5   0  151.43   58.26
 -11   5   0   28.79   38.41
  10  -5   0   11.15    9.86
  10  -5   0   25.93   14.00
  10  -5   0   24.18   10.59
 -10   5   0   66.29   48.99
 -10   5   0   15.66    7.09
 -10   5   0  -17.58   25.62
 -10   5   0   13.03    3.62
   9  -5   0  432.91   41.71
   9  -5   0  388.62   35.31
   9  -5   0  387.76   37.65
  -9   5   0  358.11   66.89
  -9   5   0  316.65   53.80
  -9   5   0  384.08   26.47
  -9   5   0  405.65   32.24
   8  -5   0   -2.79    7.00
   8  -5   0   -4.57    3.41
   8  -5   0   -4.75    5.39
  -8   5   0    0.55    2.46
  -8   5   0   -0.39    5.12
  -8   5   0   -4.01   19.34
  -8   5   0   -5.09   28.33
   7  -5   0  331.08   32.42
   7  -5   0  387.98   31.54
   7  -5   0  385.39   37.42
  -7   5   0  347.58   24.64
  -7   5   0  375.84   30.35
  -7   5   0  301.83   58.41
  -7   5   0  405.76   48.46
  -7   5   0  353.35   32.91
   6  -5   0   52.50   10.94
   6  -5   0   54.69   13.45
   6  -5   0   46.83   14.40
  -6   5   0   44.14   11.27
  -6   5   0   39.39   22.50
  -6   5   0   74.78   12.66
  -6   5   0   50.93    6.96
  -6   5   0   66.10   22.95
   5  -5   0  732.47   54.56
   5  -5   0  779.72   58.48
   5  -5   0  679.59   51.42
  -5   5   0  764.36   47.33
  -5   5   0  862.92   68.92
  -5   5   0  818.72   53.09
  -5   5   0  718.03   73.91
  -5   5   0  747.76   52.70
  -5   5   0  682.63   56.17
   4  -5   0   21.13    6.79
   4  -5   0   50.63   11.60
   4  -5   0   24.37   10.60
  -4   5   0   39.59   11.30
  -4   5   0   34.53    8.77
  -4   5   0   49.51   10.27
  -4   5   0   37.30   15.91
  -4   5   0   28.94   17.96
  -4   5   0   30.74    5.39
   3  -5   0 1720.42  105.73
   3  -5   0 1706.91  109.07
   3  -5   0 1662.07  103.23
  -3   5   0 1622.46  115.36
  -3   5   0 1579.14  103.84
  -3   5   0 1829.23  129.46
  -3   5   0 1520.51  106.97
   2  -5   0  213.82   23.35
   2  -5   0  221.93   20.87
   2  -5   0  208.46   18.71
  -2   5   0  254.05   28.17
  -2   5   0  218.15   19.73
  -2   5   0  212.41   22.70
  -2   5   0  234.85   19.99
  -2   5   0  317.90   39.56
  -2   5   0  250.12   17.33
  -1   5   0 2919.44  185.53
  -1   5   0 2675.56  172.93
  -1   5   0 2586.45  166.93
   0  -5   0  249.00   18.61
   0  -5   0  243.47   19.70
   0  -5   0  241.21   15.10
   0   5   0  226.43   21.79
   0   5   0  228.20   19.14
   0   5   0  209.18   18.51
   0   5   0  224.48   17.14
   0   5   0  197.27   23.89
   1   5   0 2778.98  173.50
  -2  -5   0   29.98    4.55
  -2  -5   0   49.85    5.09
  -2  -5   0   18.66    8.12
   2   5   0   57.78    8.00
   2   5   0   32.58    9.22
   2   5   0   61.96   10.67
   2   5   0   27.48    5.83
   3   5   0  961.79   62.19
   3   5   0 1010.88   67.25
   3   5   0 1044.52   61.02
   3   5   0 1023.43   62.60
   3   5   0  969.93   66.00
   4   5   0    4.72    2.84
   4   5   0    7.19    3.21
   4   5   0    3.33    5.21
   4   5   0    4.99    4.45
   4   5   0    1.37    2.52
   5   5   0  669.64   43.24
   5   5   0  638.56   39.89
   5   5   0  616.32   39.01
   5   5   0  579.30   41.12
   5   5   0  603.34   43.79
   6   5   0   57.84    7.51
   6   5   0   49.18    6.22
   6   5   0   52.82    9.45
   7   5   0  338.43   24.13
   7   5   0  298.59   19.84
   7   5   0  287.32   21.14
   7   5   0  290.85   25.02
   8   5   0   43.59    6.94
   8   5   0   33.05    7.32
   8   5   0   40.94   10.29
   9   5   0  368.08   26.64
   9   5   0  394.51   32.73
   9   5   0  374.70   24.59
  10   5   0   15.69    6.27
  10   5   0    5.43    6.84
  10   5   0   14.99    5.38
  10   5   0   10.39    3.57
  11   5   0  121.50   20.39
  11   5   0  117.37   11.69
  11   5   0  165.89   15.33
  11   5   0   99.99   14.35
  10  -6   0  172.31   26.18
  10  -6   0  175.59   28.68
  10  -6   0  153.14   29.69
 -10   6   0  153.39   13.11
 -10   6   0  170.52   67.05
   9  -6   0   11.31   11.91
   9  -6   0   11.88   10.18
   9  -6   0   27.13    9.53
  -9   6   0   15.54   24.54
  -9   6   0   24.17    4.84
  -9   6   0   19.13   41.84
  -9   6   0   36.07   10.28
   8  -6   0  357.31   39.09
   8  -6   0  378.61   36.62
   8  -6   0  311.92   31.31
  -8   6   0  368.79   31.73
  -8   6   0  445.93   75.23
  -8   6   0  401.59   59.27
  -8   6   0  348.82   25.23
   7  -6   0   13.86   10.11
   7  -6   0   26.75    7.96
   7  -6   0    2.46    8.87
  -7   6   0   -2.65   19.98
  -7   6   0  -17.33   21.69
  -7   6   0   12.75    7.54
  -7   6   0   12.27    4.11
   6  -6   0  340.64   32.56
   6  -6   0  309.77   35.00
   6  -6   0  290.49   27.22
  -6   6   0  328.82   29.22
  -6   6   0  325.90   23.45
  -6   6   0  438.83   67.66
  -6   6   0  380.39   47.40
   5  -6   0   69.75   17.01
   5  -6   0   57.90   14.34
   5  -6   0   68.64   11.67
  -5   6   0   62.29   30.03
  -5   6   0   51.43   21.23
  -5   6   0   47.72    7.62
  -5   6   0   62.34   12.39
   4  -6   0  729.13   56.37
   4  -6   0  719.64   52.45
   4  -6   0  653.15   48.78
  -4   6   0  676.46   49.84
  -4   6   0  805.91   66.36
  -4   6   0  715.01   50.27
  -4   6   0  719.20   45.01
  -4   6   0  618.52   72.41
  -4   6   0  623.63   53.09
   3  -6   0  148.88   23.39
   3  -6   0  117.60   18.31
   3  -6   0  158.78   15.10
  -3   6   0   79.55   30.20
  -3   6   0  108.88   16.47
  -3   6   0  113.63   16.83
  -3   6   0  150.87   23.34
  -3   6   0  136.89   12.04
  -3   6   0  128.57   26.54
   2  -6   0 1040.68   69.05
   2  -6   0 1011.86   75.07
   2  -6   0 1015.01   71.04
  -2   6   0 1083.27   70.58
  -2   6   0 1069.85   66.27
  -2   6   0 1104.68   74.96
  -2   6   0 1095.77   70.40
  -2   6   0 1089.09   81.58
  -2   6   0 1011.58   91.60
   1  -6   0   75.67    7.25
   1  -6   0   78.91   13.67
   1  -6   0   98.25   18.62
   1  -6   0   89.65   12.99
  -1   6   0   95.10   13.76
  -1   6   0   86.84   10.70
  -1   6   0   73.68   18.32
  -1   6   0   78.76   24.77
  -1   6   0   89.88   13.75
  -1   6   0   82.23   16.62
   0  -6   0  655.29   38.77
   0  -6   0  677.54   43.58
   0  -6   0  662.58   44.72
   0   6   0  678.13   44.76
   0   6   0  616.33   47.75
   0   6   0  645.31   42.06
   0   6   0  571.81   43.89
   0   6   0  601.16   61.69
   0   6   0  619.20   52.22
  -1  -6   0  193.23   15.90
  -1  -6   0  169.26   16.20
   1   6   0  191.32   17.25
   1   6   0  169.33   19.48
   1   6   0  192.54   23.59
   1   6   0  207.62   15.95
   1   6   0  198.21   17.32
   1   6   0  190.41   33.93
  -2  -6   0  826.88   52.57
  -2  -6   0  908.66   52.94
   2   6   0  807.71   55.30
   2   6   0  837.27   71.30
   2   6   0  826.61   59.22
   2   6   0  862.57   62.38
   2   6   0  874.19   55.65
   3   6   0   48.02    8.18
   3   6   0   44.62   10.74
   3   6   0   20.12   13.94
   3   6   0   53.93    8.49
   3   6   0   52.65    5.07
   3   6   0   53.35   11.23
   4   6   0 1057.40   64.04
   4   6   0 1000.70   68.13
   4   6   0  981.83   74.41
   4   6   0 1011.36   63.46
   4   6   0  929.64   69.06
   4   6   0 1058.92   62.37
   5   6   0   16.62    6.03
   5   6   0    6.35    3.93
   5   6   0    1.16    3.17
   5   6   0    9.39    3.94
   5   6   0   16.30    8.12
   5   6   0    5.68    8.41
   6   6   0  538.68   35.20
   6   6   0  569.09   36.07
   6   6   0  533.71   38.41
   6   6   0  613.48   42.08
   6   6   0  550.72   37.12
   7   6   0   19.81    5.31
   7   6   0   24.79    4.41
   7   6   0   19.81    6.92
   8   6   0  280.90   21.67
   8   6   0  233.97   17.12
   8   6   0  264.20   19.39
   8   6   0  204.26   21.88
   9   6   0   12.74    4.66
   9   6   0   16.22    8.26
   9   6   0    9.20    3.03
   9   6   0    8.29    5.40
  10   6   0  159.84   14.92
  10   6   0  196.16   24.93
  10   6   0  151.74   12.94
  10   6   0  190.44   17.24
   9  -7   0  123.12   25.12
   9  -7   0  101.26   25.63
   9  -7   0  132.26   21.92
  -9   7   0  150.36   13.16
  -9   7   0  182.11   64.22
  -9   7   0  125.29   19.76
   8  -7   0   44.08   15.68
   8  -7   0   41.54   13.01
   8  -7   0   39.00   11.40
  -8   7   0   34.28    6.64
  -8   7   0   55.90   27.77
  -8   7   0   66.91   14.11
  -8   7   0    8.33   39.76
   7  -7   0  241.86   31.63
   7  -7   0  239.71   24.90
   7  -7   0  238.42   33.59
  -7   7   0  246.78   20.20
  -7   7   0  325.17   51.55
  -7   7   0  286.40   27.50
  -7   7   0  353.30   69.87
   6  -7   0    9.38    7.55
   6  -7   0   -4.85    8.29
   6  -7   0    3.84    4.99
  -6   7   0   -6.21   29.44
  -6   7   0  -12.23   22.19
  -6   7   0    9.94    6.40
  -6   7   0    1.48    3.58
   5  -7   0  517.72   48.03
   5  -7   0  532.64   38.62
   5  -7   0  583.38   45.39
  -5   7   0  630.90   76.34
  -5   7   0  492.26   58.28
  -5   7   0  520.36   41.35
  -5   7   0  452.66   34.73
   4  -7   0    8.57    8.14
   4  -7   0   22.57   12.12
   4  -7   0   29.72    7.09
  -4   7   0   17.07    5.11
  -4   7   0   14.65   20.07
  -4   7   0   27.99    9.04
  -4   7   0   14.06   17.28
   3  -7   0 1237.69   76.01
   3  -7   0 1222.10   83.07
   3  -7   0 1115.83   79.24
   3  -7   0 1262.31   88.20
  -3   7   0 1281.30  109.59
  -3   7   0 1184.46   80.89
  -3   7   0 1248.52   75.90
  -3   7   0 1140.48   94.31
   2  -7   0   29.72   12.32
   2  -7   0   13.98    4.16
   2  -7   0   34.70    8.55
   2  -7   0   24.95    8.44
  -2   7   0   16.17   14.64
  -2   7   0   33.73    9.63
  -2   7   0   18.18   17.57
  -2   7   0   17.43    5.28
  -2   7   0   18.20    7.23
   1  -7   0  373.57   29.57
   1  -7   0  393.21   25.16
   1  -7   0  385.35   31.87
   1  -7   0  375.66   24.97
  -1   7   0  354.88   27.45
  -1   7   0  414.06   42.79
  -1   7   0  372.71   31.08
  -1   7   0  410.68   53.22
  -1   7   0  425.64   32.01
  -1   7   0  370.94   34.36
   0  -7   0    7.53    4.88
   0  -7   0    2.45    4.60
   0   7   0    3.52    4.83
   0   7   0  -20.09   16.50
   0   7   0   10.30   10.22
   0   7   0    5.47    5.59
   0   7   0    0.55    4.09
   0   7   0    3.85    3.26
  -1  -7   0  702.27   46.45
  -1  -7   0  702.23   47.40
   1   7   0  698.38   48.31
   1   7   0  722.75   53.14
   1   7   0  681.47   48.28
   1   7   0  674.03   46.26
   1   7   0  661.12   56.69
   1   7   0  731.24   68.94
  -2  -7   0  145.54   12.17
  -2  -7   0  128.15   11.83
   2   7   0  159.02   15.22
   2   7   0  125.66   29.65
   2   7   0  128.40   13.40
   2   7   0  126.69   13.92
   2   7   0  141.11   23.83
   2   7   0  148.64   18.18
   3   7   0  981.43   72.65
   3   7   0 1001.64   82.32
   3   7   0  972.66   70.00
   3   7   0 1011.91   65.64
   3   7   0 1074.71   65.78
   3   7   0 1040.86   66.18
   4   7   0    0.84    3.24
   4   7   0   19.77    7.62
   4   7   0    8.52    4.18
   4   7   0    0.93    1.92
   4   7   0    3.77    9.03
   4   7   0  -12.82   12.09
   5   7   0  595.56   45.02
   5   7   0  537.04   35.93
   5   7   0  565.12   42.50
   5   7   0  531.43   37.62
   5   7   0  550.94   47.38
   5   7   0  509.86   36.65
   6   7   0   11.60    4.89
   6   7   0    7.39    6.35
   6   7   0   24.87    8.76
   6   7   0    3.07    8.57
   6   7   0   10.79    4.73
   6   7   0   14.83    4.58
   7   7   0  423.34   32.87
   7   7   0  458.60   35.97
   7   7   0  461.71   30.30
   7   7   0  439.37   31.53
   8   7   0    5.85    5.45
   8   7   0    1.58    4.83
   8   7   0    9.30    4.58
   8   7   0    8.42    3.72
   8   7   0    6.19    6.13
   9   7   0  153.63   16.26
   9   7   0  173.22   17.85
   9   7   0  145.65   19.66
   9   7   0  158.55   14.51
  10   7   0   10.93    7.75
   9  -8   0   35.00   15.23
   9  -8   0    6.23    7.37
  -9   8   0  -17.84   42.91
  -9   8   0   17.61    9.02
  -9   8   0   -1.94   64.76
   8  -8   0  163.40   32.67
   8  -8   0  132.93   26.70
   8  -8   0  167.30   23.72
  -8   8   0  216.91   70.61
  -8   8   0  197.89   26.70
  -8   8   0  126.63   14.04
   7  -8   0   58.16   13.09
   7  -8   0   34.57   14.27
   7  -8   0   65.11   19.67
  -7   8   0   57.60   14.52
  -7   8   0    7.21   32.34
  -7   8   0   42.16   47.09
  -7   8   0   51.19    9.19
   6  -8   0  326.39   28.67
   6  -8   0  279.12   33.06
   6  -8   0  334.30   38.34
  -6   8   0  249.44   64.52
  -6   8   0  386.79   33.26
  -6   8   0  336.37   25.35
  -6   8   0  310.30   53.32
   5  -8   0   27.66   12.43
   5  -8   0   31.65    8.40
   5  -8   0   26.09   13.37
  -5   8   0   26.68    6.70
  -5   8   0   28.92   11.04
  -5   8   0   32.21   24.17
  -5   8   0  -27.66   36.10
   4  -8   0  305.85   35.68
   4  -8   0  288.84   30.75
   4  -8   0  285.10   24.42
  -4   8   0  306.29   24.19
  -4   8   0  400.73   69.65
  -4   8   0  349.08   47.05
  -4   8   0  325.16   30.14
   3  -8   0   19.91    9.13
   3  -8   0   36.17   14.17
   3  -8   0   21.33    5.66
  -3   8   0   27.83    7.05
  -3   8   0   36.14   21.72
  -3   8   0   35.51   10.13
  -3   8   0   33.56   30.71
   2  -8   0  372.88   31.88
   2  -8   0  365.39   34.42
   2  -8   0  425.39   27.47
   2  -8   0  377.25   27.18
  -2   8   0  402.05   65.70
  -2   8   0  444.11   30.22
  -2   8   0  436.91   35.06
  -2   8   0  353.11   45.42
   1  -8   0    0.66    5.68
   1  -8   0   -1.22    3.86
   1  -8   0    0.00    2.04
   1  -8   0    1.78    1.61
  -1   8   0    3.34    3.62
  -1   8   0  -16.80   17.57
  -1   8   0    5.76   14.55
  -1   8   0   -5.89    3.68
   0  -8   0  383.85   31.80
   0  -8   0  377.77   29.77
   0   8   0  416.00   43.39
   0   8   0  409.15   29.81
   0   8   0  369.05   59.97
   0   8   0  380.08   32.27
  -1  -8   0   32.22    7.64
  -1  -8   0   27.52    8.30
   1   8   0   27.29   22.68
   1   8   0   31.38    9.56
   1   8   0   29.61    8.67
   1   8   0   25.32   15.24
   1   8   0   29.38    7.36
  -2  -8   0  379.55   28.24
   2   8   0  425.89   32.93
   2   8   0  460.19   31.94
   2   8   0  417.95   32.43
   2   8   0  390.13   52.95
   2   8   0  447.22   42.46
   2   8   0  411.30   37.04
   3   8   0   43.81   11.06
   3   8   0   16.32    6.38
   3   8   0   24.59    7.61
   3   8   0   18.55   19.40
   3   8   0   33.55    8.51
   4   8   0  226.44   29.52
   4   8   0  276.01   25.31
   4   8   0  216.75   20.57
   4   8   0  226.45   19.96
   4   8   0  218.78   20.32
   4   8   0  210.58   37.19
   5   8   0   26.01    6.99
   5   8   0   32.84   15.43
   5   8   0   37.18   10.68
   5   8   0   23.28    3.96
   5   8   0   21.34    7.09
   5   8   0   26.25    6.83
   5   8   0   54.76   19.86
   6   8   0  409.61   28.66
   6   8   0  378.70   29.30
   6   8   0  400.69   30.71
   6   8   0  390.96   35.28
   6   8   0  382.07   37.39
   6   8   0  388.98   34.14
   6   8   0  364.46   26.89
   7   8   0   12.71    5.45
   7   8   0   20.69    5.71
   7   8   0   12.98    6.42
   7   8   0   31.31   10.26
   7   8   0    6.25    4.70
   8   8   0  201.03   19.66
   8   8   0  190.44   15.48
   8   8   0  162.47   16.53
   8   8   0  207.87   19.40
   8   8   0  177.51   20.69
   8   8   0  181.08   17.84
   9   8   0   10.69    6.44
   9   8   0    1.24    4.27
   9   8   0    2.26    5.44
   9   8   0    7.64    4.86
   9   8   0    4.07    6.59
   9   8   0   19.11    5.83
   7  -9   0  202.29   22.46
   7  -9   0  206.41   36.45
   7  -9   0  188.65   32.21
  -7   9   0  204.72   29.38
  -7   9   0  130.15   67.75
  -7   9   0  279.84   60.76
  -7   9   0  208.53   18.96
   6  -9   0   41.10   16.23
   6  -9   0   17.93   10.92
   6  -9   0   36.78    9.43
  -6   9   0   19.63    6.44
  -6   9   0   19.11   10.54
  -6   9   0   49.92   38.72
  -6   9   0  -22.50   23.41
   5  -9   0  247.34   22.48
   5  -9   0  249.30   34.53
   5  -9   0  189.34   34.82
  -5   9   0  238.52   26.98
  -5   9   0  398.50   75.90
  -5   9   0  204.69   45.31
  -5   9   0  249.00   21.13
   4  -9   0    4.16    4.36
   4  -9   0   -8.23    5.61
  -4   9   0    6.39    4.82
  -4   9   0   -5.74   25.33
  -4   9   0   -3.03    6.51
  -4   9   0   14.73   37.54
   3  -9   0  175.14   26.93
   3  -9   0  176.44   15.30
   3  -9   0  177.25   15.64
  -3   9   0  198.49   17.89
  -3   9   0  185.34   51.52
  -3   9   0  168.76   39.75
  -3   9   0  160.85   24.57
   2  -9   0   11.64    3.69
   2  -9   0   13.92    9.16
   2  -9   0    9.28    3.39
  -2   9   0   70.10   36.63
  -2   9   0    6.60    4.94
  -2   9   0   17.76    8.87
  -2   9   0   48.63   23.30
   1  -9   0  614.25   44.90
   1  -9   0  642.66   48.61
  -1   9   0  637.24   43.46
  -1   9   0  626.56   62.32
  -1   9   0  560.60   46.83
  -1   9   0  549.45   76.55
   0  -9   0   13.03    6.88
   0  -9   0   27.96   10.09
   0   9   0   23.44    7.66
   0   9   0   18.60   17.66
   0   9   0   50.85   28.46
   0   9   0   25.35    9.37
  -1  -9   0  532.98   38.67
  -1  -9   0  517.00   37.71
   1   9   0  503.71   38.04
   1   9   0  564.12   41.80
   1   9   0  424.48   66.69
  -2  -9   0   12.79    4.24
  -2  -9   0   17.57    5.18
   2   9   0    8.54    6.79
   2   9   0   16.14    5.71
   2   9   0   23.78   23.26
   2   9   0    4.81   16.82
   3   9   0  211.00   21.02
   3   9   0  232.16   43.53
   3   9   0  179.78   18.68
   4   9   0   14.71    6.90
   4   9   0   10.38    6.73
   4   9   0   36.24   25.09
   4   9   0   26.82   17.37
   5   9   0  299.99   36.66
   5   9   0  271.98   24.31
   5   9   0  285.42   25.10
   6   9   0   29.13   19.40
   6   9   0   -0.41    3.75
   6   9   0    5.47    5.15
   6   9   0    6.20    5.52
   6   9   0   10.81   16.88
   7   9   0  133.74   13.84
   7   9   0  134.85   15.03
   7   9   0  139.70   18.69
   6 -10   0  134.97   18.83
   6 -10   0  174.91   29.42
  -6  10   0  143.71   24.29
  -6  10   0  144.05   17.82
  -6  10   0  100.13   67.13
   5 -10   0   30.16   11.82
   5 -10   0   29.08    7.78
  -5  10   0   28.07   10.66
  -5  10   0   30.66   51.43
  -5  10   0   32.33    8.48
   4 -10   0  175.66   27.81
   4 -10   0  150.62   15.07
  -4  10   0  141.63   23.95
  -4  10   0  154.01   16.48
  -4  10   0   88.41   61.67
   3 -10   0   -1.49    1.63
   3 -10   0    6.26    3.55
   3 -10   0    4.87    8.34
  -3  10   0    6.67    8.29
  -3  10   0   14.84   32.43
  -3  10   0   -1.05    3.97
  -3  10   0   52.83   40.60
   2 -10   0  193.96   27.19
  -2  10   0  180.99   41.73
  -2  10   0  225.32   58.55
  -2  10   0  160.79   17.60
  -2  10   0  158.03   24.95
   1 -10   0   35.64   13.03
  -1  10   0    0.21   24.70
  -1  10   0   31.00    8.53
  -1  10   0   58.41   38.02
  -1  10   0   37.74   11.83
   0 -10   0  260.94   25.61
   0 -10   0  342.68   29.44
   0  10   0  289.27   25.95
   0  10   0  279.02   60.59
   0  10   0  336.58   51.82
   0  10   0  319.63   30.24
  -1 -10   0    4.52    5.58
  -1 -10   0    3.21    6.24
   1  10   0   -6.96    3.37
   1  10   0    0.83    5.64
   1  10   0    7.84   31.97
   1  10   0   -5.22   18.65
  -2 -10   0  181.84   14.20
   2  10   0  200.63   36.88
   2  10   0  188.08   19.68
   2  10   0  232.36   23.48
   2  10   0  216.00   53.24
   3  10   0    4.99   17.87
   3  10   0   54.23   34.41
   3  10   0    6.67    5.46
   3  10   0    8.59    6.71
   4  10   0  237.18   23.28
   4  10   0  217.87   36.06
   4  10   0  183.40   43.27
   4  10   0  215.40   21.62
   5  10   0   49.89   31.98
   5  10   0   44.62   28.80
   5  10   0   38.26   10.62
   5  10   0   53.42   11.67
   6  10   0  160.42   17.80
   6  10   0  134.09   35.06
   6  10   0  154.64   20.48
   3 -11   0  205.13   29.16
  -3  11   0  190.61   72.11
  -3  11   0  133.09   47.18
  -3  11   0  200.39   30.12
  -3  11   0  151.15   19.80
   2 -11   0    6.62    7.98
  -2  11   0   -1.14    3.98
  -2  11   0    8.82    8.31
  -2  11   0   21.73   35.04
  -2  11   0  -20.78   54.03
   1 -11   0  257.81   26.51
  -1  11   0  236.20   22.69
  -1  11   0  190.33   46.38
  -1  11   0  140.13   59.74
  -1  11   0  231.38   31.47
   0 -11   0   -3.96    3.76
   0 -11   0    7.96    8.26
   0  11   0    7.43    5.96
   0  11   0   -8.42   46.59
   0  11   0  -35.26   26.91
   0  11   0    8.57    7.87
   1  11   0  128.48   56.04
   1  11   0  188.27   26.21
   1  11   0  168.63   20.91
   1  11   0  109.26   42.49
   2  11   0    0.98    4.66
   2  11   0   -8.35   41.97
   2  11   0   -0.03    6.17
   3  11   0  136.17   51.44
   3  11   0  163.72   24.06
   3  11   0  193.53   20.30
   2  11  -1  -52.42   46.50
   2  11  -1   10.80    7.20
   2  11  -1    2.92    7.64
   1  11  -1  131.13   21.92
   1  11  -1  113.47   17.91
   1  11  -1  137.62   56.72
   0  11  -1    3.84    7.56
   0  11  -1   -1.92    4.43
   0  11  -1  -20.51   48.12
   0 -11   1    1.62    7.41
   0 -11   1    2.20    4.54
  -1  11  -1   43.52   39.72
  -1  11  -1   63.69   59.91
  -1  11  -1  104.48   16.16
  -1  11  -1   93.01   19.39
   1 -11   1  105.87   18.12
  -2  11  -1  -19.73   55.67
  -2  11  -1    8.09    6.36
  -2  11  -1  -17.39   35.30
  -2  11  -1   12.88   10.16
   2 -11   1    0.71    8.94
   5  10  -1   11.99    8.22
   5  10  -1   10.87    6.75
   5  10  -1   43.36   36.15
   4  10  -1  247.18   23.52
   4  10  -1  170.23   46.50
   4  10  -1  240.32   23.62
   3  10  -1    0.19    5.13
   3  10  -1    2.33    5.69
   3  10  -1   18.92   21.29
   3  10  -1   17.09   34.47
   2  10  -1  205.45   39.25
   2  10  -1  154.41   20.15
   2  10  -1  169.46   23.92
   2  10  -1  164.48   48.93
  -2 -10   1  156.24   14.23
   1  10  -1    9.48    8.56
   1  10  -1    8.52    5.61
   1  10  -1   21.98   35.39
   1  10  -1   12.37   22.11
  -1 -10   1    7.18    6.89
  -1 -10   1    7.81    6.16
   0  10  -1  236.78   21.96
   0  10  -1  237.02   25.60
   0  10  -1  135.24   35.36
   0  10  -1  172.23   52.98
   0 -10   1  207.50   21.99
   0 -10   1  262.54   25.34
  -1  10  -1   29.42    8.27
  -1  10  -1   49.77   46.52
  -1  10  -1   22.57   10.49
  -1  10  -1   19.04   25.25
   1 -10   1   37.38   12.28
  -2  10  -1  241.04   68.11
  -2  10  -1  229.47   24.85
  -2  10  -1  180.54   46.11
  -2  10  -1  195.52   19.96
   2 -10   1  183.03   28.42
  -3  10  -1   -2.31    5.94
  -3  10  -1    1.31   31.97
  -3  10  -1    4.91    5.37
  -3  10  -1   10.73   49.24
   3 -10   1    0.03    7.62
   3 -10   1    6.26    3.35
   3 -10   1   -0.07    1.71
  -4  10  -1  159.75   58.07
  -4  10  -1  136.70   17.99
  -4  10  -1   66.76   45.09
  -4  10  -1  154.93   25.84
   4 -10   1  156.23   15.55
   4 -10   1  178.15   28.71
  -5  10  -1    3.76    5.03
  -5  10  -1  -77.00   57.57
  -5  10  -1   41.70   43.82
  -5  10  -1   25.01   11.70
   5 -10   1   14.06   13.42
   5 -10   1    0.18    2.72
   5 -10   1   23.73    7.51
   5 -10   1   -2.62    6.87
   7   9  -1  180.96   21.76
   7   9  -1  159.07   19.46
   7   9  -1  161.74   13.89
   7   9  -1  131.66   23.80
   7   9  -1  167.19   17.74
   7   9  -1  134.81   21.99
   6   9  -1   15.99    7.15
   6   9  -1  -23.40   23.43
   6   9  -1    2.94    6.16
   6   9  -1   -3.40   21.31
   5   9  -1  247.60   24.24
   5   9  -1  270.90   24.37
   5   9  -1  252.28   38.35
   5   9  -1  262.10   46.33
   4   9  -1    7.45    5.77
   4   9  -1   38.31   20.39
   4   9  -1   16.02    7.49
   4   9  -1  -39.90   25.92
   3   9  -1  194.16   19.60
   3   9  -1  107.55   40.06
   3   9  -1  230.30   40.81
   3   9  -1  220.79   22.02
   2   9  -1   -0.25    5.50
   2   9  -1   -7.18   14.65
   2   9  -1   26.43   28.73
   2   9  -1    6.85    5.40
  -2  -9   1    4.07    4.53
  -2  -9   1   -1.23    4.24
   1   9  -1  353.31   63.78
   1   9  -1  247.55   40.92
   1   9  -1  266.93   23.33
   1   9  -1  283.09   26.69
  -1  -9   1  228.16   22.02
  -1  -9   1  255.57   24.14
   0   9  -1   13.71    8.29
   0   9  -1   40.87   31.82
   0   9  -1    3.34    4.73
   0  -9   1   11.42    7.32
   0  -9   1   -2.43    5.91
  -1   9  -1  266.39   60.32
  -1   9  -1  276.62   26.63
  -1   9  -1  242.56   21.61
   1  -9   1  206.48   15.73
   1  -9   1  235.28   25.26
   1  -9   1  239.08   16.45
  -2   9  -1   39.97   25.58
  -2   9  -1   36.55   11.90
  -2   9  -1   53.64   37.83
  -2   9  -1   28.47    7.67
   2  -9   1   29.60   11.75
   2  -9   1   40.51    6.60
   2  -9   1   35.27    6.43
  -3   9  -1  175.68   17.89
  -3   9  -1  127.21   50.24
  -3   9  -1  181.90   27.12
  -3   9  -1  273.29   47.04
   3  -9   1  197.64   34.12
   3  -9   1  188.75   16.72
   3  -9   1  192.53   16.58
   3  -9   1  205.39   29.46
  -4   9  -1    2.27    5.12
  -4   9  -1    7.07    5.20
  -4   9  -1   -5.55   26.90
  -4   9  -1   35.49   43.86
   4  -9   1    5.37    4.47
   4  -9   1    5.51    9.22
   4  -9   1    7.12    9.57
   4  -9   1    7.89    4.97
  -5   9  -1  176.03   61.96
  -5   9  -1  174.79   27.46
  -5   9  -1  178.16   17.21
  -5   9  -1  165.32   42.35
   5  -9   1  163.50   28.34
   5  -9   1  170.21   18.27
   5  -9   1  205.81   36.83
  -6   9  -1   20.45    6.49
  -6   9  -1   21.57   39.86
  -6   9  -1   26.47   10.65
  -6   9  -1   11.10   55.36
   6  -9   1   -1.34    9.45
   6  -9   1    2.70    8.31
   6  -9   1   21.03    7.67
  -7   9  -1   64.83   49.67
  -7   9  -1   95.50   13.20
  -7   9  -1  137.44   23.38
  -7   9  -1   75.15   55.73
   7  -9   1  141.02   25.36
   7  -9   1  123.65   18.62
   7  -9   1  110.62   26.09
   8   8  -1  208.57   17.86
   8   8  -1  169.64   17.43
   8   8  -1  148.29   17.73
   8   8  -1  168.66   17.25
   8   8  -1  150.01   14.36
   7   8  -1   31.12    8.17
   7   8  -1   50.12    8.71
   7   8  -1   38.08   12.83
   7   8  -1   28.71    9.56
   7   8  -1   26.17   13.03
   7   8  -1   33.25    7.37
   6   8  -1  323.32   26.79
   6   8  -1  288.83   38.61
   6   8  -1  281.52   23.40
   6   8  -1  368.53   38.38
   6   8  -1  307.42   24.73
   6   8  -1  377.91   30.33
   5   8  -1   66.82   14.35
   5   8  -1   50.93    9.22
   5   8  -1   31.49   23.68
   5   8  -1   48.64   10.83
   5   8  -1   23.18   18.38
   4   8  -1  341.42   26.69
   4   8  -1  383.04   50.76
   4   8  -1  311.31   27.76
   4   8  -1  330.52   30.25
   3   8  -1   21.33    6.98
   3   8  -1   15.74    5.95
   3   8  -1   17.31    6.90
   3   8  -1   38.00   10.68
   3   8  -1    9.80   21.29
   2   8  -1  556.74   40.75
   2   8  -1  493.68   49.89
   2   8  -1  446.95   62.38
   2   8  -1  524.90   46.07
   2   8  -1  573.09   38.77
  -2  -8   1  514.82   36.44
   1   8  -1    4.44    3.95
   1   8  -1   12.68   21.44
   1   8  -1   -3.07    4.24
   1   8  -1   -0.27   13.15
  -1  -8   1    8.25    5.71
  -1  -8   1   18.11    7.03
   0   8  -1  371.11   29.12
   0   8  -1  426.03   33.58
   0   8  -1  316.52   58.43
   0   8  -1  397.30   44.68
   0  -8   1  392.14   30.92
   0  -8   1  376.03   24.09
   0  -8   1  373.70   32.29
  -1   8  -1    2.19    6.62
  -1   8  -1   -9.09   22.59
  -1   8  -1    0.13   13.30
  -1   8  -1   -2.00    2.48
   1  -8   1   13.13    6.87
   1  -8   1   10.09    7.52
   1  -8   1   -0.31    2.81
  -2   8  -1  620.72   49.44
  -2   8  -1  684.99   44.99
  -2   8  -1  657.35   64.15
  -2   8  -1  692.42   81.72
   2  -8   1  616.23   42.33
   2  -8   1  647.83   50.58
   2  -8   1  674.95   57.05
  -3   8  -1   62.88   25.96
  -3   8  -1   44.11    8.73
  -3   8  -1   63.63   14.15
  -3   8  -1   56.54   37.82
   3  -8   1   53.87   14.48
   3  -8   1   43.05    7.94
   3  -8   1   69.96   19.32
  -4   8  -1  299.45   23.49
  -4   8  -1  249.22   60.80
  -4   8  -1  368.62   53.10
  -4   8  -1  279.21   28.84
   4  -8   1  267.82   33.06
   4  -8   1  282.09   30.35
  -5   8  -1  -12.14   35.72
  -5   8  -1   -0.89   24.41
  -5   8  -1   -4.70    4.98
  -5   8  -1   -0.94    3.30
   5  -8   1   -0.33    9.69
   5  -8   1   -1.64    4.06
   5  -8   1   -3.11    7.15
  -6   8  -1  155.02   49.51
  -6   8  -1  251.40   26.00
  -6   8  -1  190.81   45.36
  -6   8  -1  203.22   18.65
   6  -8   1  257.52   39.66
   6  -8   1  223.52   22.30
   6  -8   1  217.13   32.70
  -7   8  -1   31.94    6.92
  -7   8  -1   17.94   10.46
  -7   8  -1  -15.83   48.51
  -7   8  -1   14.37   33.39
   7  -8   1   13.76   12.81
   7  -8   1   14.06    9.67
   7  -8   1   32.44    9.76
  -8   8  -1  174.04   15.20
  -8   8  -1  115.53   66.81
  -8   8  -1  163.76   25.08
   8  -8   1  121.81   25.19
   8  -8   1  137.74   22.33
   8  -8   1  162.86   32.34
   9   7  -1  147.48   15.94
   9   7  -1  189.98   20.17
   9   7  -1  174.48   15.74
   9   7  -1  177.84   16.67
   8   7  -1    9.97    6.04
   8   7  -1    7.24    5.85
   8   7  -1   11.24    5.45
   8   7  -1    7.15    4.78
   8   7  -1   13.28    4.58
   7   7  -1  312.04   25.80
   7   7  -1  343.19   28.07
   7   7  -1  344.09   23.88
   7   7  -1  289.48   25.81
   7   7  -1  327.90   25.75
   6   7  -1   37.64    8.65
   6   7  -1   39.42    8.25
   6   7  -1   61.97   19.23
   6   7  -1   56.20   15.54
   6   7  -1   45.45    7.95
   6   7  -1   38.93   10.02
   5   7  -1  452.58   41.82
   5   7  -1  411.59   29.82
   5   7  -1  381.57   44.90
   5   7  -1  429.73   32.31
   5   7  -1  473.73   35.73
   5   7  -1  428.55   30.86
   4   7  -1   20.37    6.88
   4   7  -1   22.75    6.20
   4   7  -1   31.75    8.87
   4   7  -1   16.94   12.92
   4   7  -1   21.00    4.39
   3   7  -1  953.83   60.20
   3   7  -1  851.40   58.28
   3   7  -1  832.32   62.21
   3   7  -1  920.46   68.82
   2   7  -1   43.08    9.63
   2   7  -1   30.81   13.47
   2   7  -1   47.89   12.39
   2   7  -1   60.64   10.09
  -2  -7   1   33.65    6.98
  -2  -7   1   28.67    6.51
   1   7  -1  660.79   45.92
   1   7  -1  563.31   47.73
   1   7  -1  570.42   43.93
   1   7  -1  667.35   55.36
   1   7  -1  659.25   43.28
  -1  -7   1  669.15   43.88
  -1  -7   1  633.81   38.11
  -1  -7   1  625.03   44.19
   0   7  -1   25.27   13.40
   0   7  -1   49.53   12.86
   0   7  -1   29.69    6.91
   0   7  -1   49.53   10.14
   0   7  -1   26.90    8.70
   0  -7   1   39.76   10.37
   0  -7   1   28.42    7.49
   0  -7   1   24.94    4.46
  -1   7  -1  756.05   63.38
  -1   7  -1  647.51   53.68
  -1   7  -1  728.81   46.98
  -1   7  -1  745.78   51.12
  -1   7  -1  601.57   70.50
   1  -7   1  737.84   44.72
   1  -7   1  652.69   48.73
   1  -7   1  708.16   56.61
   1  -7   1  677.42   50.90
  -2   7  -1    8.76    6.84
  -2   7  -1   20.33   21.56
  -2   7  -1    2.64   12.05
  -2   7  -1   -0.92    2.20
   2  -7   1   -1.44    2.49
   2  -7   1   -2.69    5.40
   2  -7   1    5.24    4.70
   2  -7   1    0.20    7.81
  -3   7  -1  840.65   73.04
  -3   7  -1  880.48   89.05
  -3   7  -1  874.23   61.49
  -3   7  -1  855.15   55.57
   3  -7   1  847.99   67.11
   3  -7   1  857.55   62.81
  -4   7  -1    4.83   26.45
  -4   7  -1   29.50   22.14
  -4   7  -1   11.64    4.60
  -4   7  -1   19.79    8.86
   4  -7   1   13.83    9.08
   4  -7   1   31.85   11.28
  -5   7  -1  333.42   42.11
  -5   7  -1  283.52   27.61
  -5   7  -1  293.69   22.13
  -5   7  -1  349.09   62.52
   5  -7   1  259.68   32.96
   5  -7   1  243.61   28.76
  -6   7  -1   19.55   20.20
  -6   7  -1   10.52    8.34
  -6   7  -1   14.28    5.03
  -6   7  -1   39.04   37.01
   6  -7   1   18.28    7.21
   6  -7   1   35.54   14.27
   6  -7   1   43.74   12.95
  -7   7  -1  471.99   82.06
  -7   7  -1  448.42   31.16
  -7   7  -1  490.08   62.40
  -7   7  -1  478.88   39.26
   7  -7   1  477.10   37.42
   7  -7   1  368.71   43.79
   7  -7   1  389.70   40.62
  -8   7  -1    3.73    7.98
  -8   7  -1   12.38    4.29
  -8   7  -1   10.61   30.38
  -8   7  -1  -39.64   45.00
   8  -7   1   12.31    7.95
   8  -7   1   28.62   13.05
   8  -7   1   16.82   13.12
  -9   7  -1  183.05   24.37
  -9   7  -1   43.95   58.56
  -9   7  -1  144.55   13.42
   9  -7   1  190.33   29.72
   9  -7   1  182.26   33.63
   9  -7   1  136.56   23.11
  10   6  -1  156.69   23.46
  10   6  -1  177.04   13.97
  10   6  -1  172.00   16.71
  10   6  -1  174.28   13.95
  10   6  -1  139.95   13.51
   9   6  -1    7.29    3.98
   9   6  -1    2.57    4.56
   9   6  -1    9.73    7.64
   9   6  -1   13.62    5.28
   9   6  -1   17.11    4.56
   8   6  -1  376.44   31.60
   8   6  -1  382.12   29.19
   8   6  -1  392.65   29.02
   8   6  -1  401.99   26.53
   8   6  -1  385.87   28.21
   7   6  -1   11.32    5.47
   7   6  -1   15.48    4.19
   7   6  -1    9.28    4.85
   7   6  -1    5.33    4.68
   7   6  -1   14.06    5.74
   7   6  -1   10.34    5.80
   6   6  -1  402.49   29.90
   6   6  -1  400.38   28.04
   6   6  -1  399.29   31.46
   6   6  -1  462.58   36.28
   6   6  -1  404.47   30.54
   5   6  -1   76.05   12.70
   5   6  -1   75.14   10.93
   5   6  -1   62.82    9.19
   5   6  -1   58.00    9.48
   5   6  -1   64.31   15.13
  -5  -6   1   59.01   14.01
   4   6  -1  505.74   35.65
   4   6  -1  518.35   38.22
   4   6  -1  536.41   34.61
   4   6  -1  468.79   33.24
   4   6  -1  474.61   42.57
  -4  -6   1  501.79   42.13
   3   6  -1   78.23    7.50
   3   6  -1   83.95   14.18
   3   6  -1   62.45   13.71
   3   6  -1   64.21   10.25
   3   6  -1   74.82   11.69
  -3  -6   1   73.71   16.57
   2   6  -1  690.82   51.97
   2   6  -1  751.34   49.52
   2   6  -1  725.57   48.63
   2   6  -1  743.39   56.78
  -2  -6   1  697.80   46.71
  -2  -6   1  773.42   59.11
  -2  -6   1  721.52   44.46
  -2  -6   1  738.84   47.07
   1   6  -1    9.33    7.10
   1   6  -1   18.18    5.55
   1   6  -1   15.70    5.93
   1   6  -1    6.08    9.90
  -1  -6   1   15.50    5.25
  -1  -6   1    4.79    4.66
  -1  -6   1    1.97    9.54
  -1  -6   1    9.40    2.53
   0   6  -1  543.43   48.82
   0   6  -1  669.08   44.51
   0   6  -1  794.37   58.43
   0   6  -1  704.52   47.60
   0   6  -1  658.90   46.75
   0  -6   1  698.68   42.45
   0  -6   1  660.65   47.19
   0  -6   1  675.28   46.01
   0  -6   1  715.24   52.61
   0  -6   1  703.89   58.22
  -1   6  -1    0.50   10.64
  -1   6  -1    2.21    6.40
  -1   6  -1    1.67    4.43
  -1   6  -1    3.72    4.59
  -1   6  -1    9.96    3.96
   1  -6   1    8.79    7.46
   1  -6   1    3.45    5.12
   1  -6   1    2.58    2.70
   1  -6   1    7.10    4.73
  -2   6  -1  746.44   47.29
  -2   6  -1  824.30   64.01
  -2   6  -1  652.09   50.32
  -2   6  -1  761.40   51.88
  -2   6  -1  789.97   77.39
  -2   6  -1  672.34   54.53
   2  -6   1  717.06   50.12
   2  -6   1  731.38   52.65
   2  -6   1  717.76   56.54
  -3   6  -1  122.00   36.61
  -3   6  -1   82.91   13.90
  -3   6  -1   89.38   10.68
  -3   6  -1   74.37   14.29
  -3   6  -1   94.49   18.20
  -3   6  -1   76.99   21.67
   3  -6   1   84.40   17.84
   3  -6   1   73.85   13.14
   3  -6   1   81.09   15.49
  -4   6  -1  618.04   47.58
  -4   6  -1  735.72   77.17
  -4   6  -1  665.57   61.86
  -4   6  -1  696.66   42.52
   4  -6   1  583.77   48.78
   4  -6   1  609.39   52.92
  -5   6  -1   98.28   38.52
  -5   6  -1  107.43   10.46
  -5   6  -1  111.20   28.60
  -5   6  -1  119.39   18.26
   5  -6   1  121.67   23.29
   5  -6   1  100.19   18.09
  -6   6  -1  517.42   34.51
  -6   6  -1  498.05   40.85
  -6   6  -1  616.60   75.19
  -6   6  -1  481.13   57.47
   6  -6   1  488.48   47.26
   6  -6   1  553.45   44.93
  -7   6  -1   12.65    4.15
  -7   6  -1   26.85    9.40
  -7   6  -1   18.58   21.23
  -7   6  -1   40.14   35.29
   7  -6   1   11.25   11.45
   7  -6   1    6.94    6.25
   7  -6   1   11.06    8.33
  -8   6  -1  293.61   27.42
  -8   6  -1  257.82   47.99
  -8   6  -1  265.03   19.96
  -8   6  -1  223.18   61.00
   8  -6   1  268.94   26.66
   8  -6   1  268.28   30.78
   8  -6   1  291.91   35.04
  -9   6  -1    4.27    6.94
  -9   6  -1   50.98   43.52
  -9   6  -1   11.17    3.28
  -9   6  -1  -29.35   25.29
   9  -6   1    0.08    8.96
   9  -6   1    6.11    9.14
   9  -6   1   12.73    8.45
 -10   6  -1   75.48   60.38
 -10   6  -1  201.35   20.42
 -10   6  -1   56.23   40.21
  10  -6   1  130.94   25.93
  10  -6   1  142.81   23.54
  10  -6   1  137.06   28.11
  11   5  -1  118.36   12.27
  11   5  -1  118.30   21.27
  11   5  -1  125.22   16.49
  10   5  -1   46.29   12.40
  10   5  -1   30.33    5.97
  10   5  -1   34.95    8.12
  10   5  -1   30.94    5.78
  10   5  -1   27.18    5.49
   9   5  -1  267.80   22.29
   9   5  -1  287.54   21.67
   9   5  -1  272.92   26.78
   9   5  -1  291.64   21.91
   9   5  -1  271.50   19.75
   8   5  -1   22.50    7.69
   8   5  -1   20.01    5.75
   8   5  -1   26.83    6.05
   8   5  -1   17.89    5.05
   7   5  -1  271.15   21.27
   7   5  -1  304.76   25.88
   7   5  -1  287.08   23.02
   7   5  -1  367.45   23.72
   7   5  -1  329.91   21.40
   7   5  -1  307.21   24.19
   6   5  -1   11.69    5.70
   6   5  -1   29.34    7.03
   6   5  -1   13.22    4.94
   6   5  -1    1.17    7.38
   6   5  -1   30.03    4.83
  -6  -5   1   10.69    5.87
   5   5  -1 1171.05   73.39
   5   5  -1 1207.77   79.83
   5   5  -1 1100.69   73.78
   5   5  -1 1136.94   75.00
   5   5  -1 1174.15   71.86
  -5  -5   1 1272.99   77.82
   4   5  -1   30.01    5.80
   4   5  -1   24.46    6.16
   4   5  -1   34.92   11.61
   4   5  -1   16.19    4.74
   4   5  -1   27.54    7.70
  -4  -5   1   19.63    8.32
   3   5  -1  951.76   65.49
   3   5  -1  875.77   58.46
   3   5  -1  878.82   56.60
   3   5  -1  959.84   58.03
   3   5  -1  973.27   61.36
  -3  -5   1  884.98   64.36
  -3  -5   1  896.11   56.42
   2   5  -1  197.11   15.95
   2   5  -1  166.81   19.95
   2   5  -1  175.96   15.01
   2   5  -1  149.35   16.91
   2   5  -1  179.69   12.83
  -2  -5   1  179.50   21.81
  -2  -5   1  179.08   14.10
  -2  -5   1  175.59   13.89
  -2  -5   1  163.41   12.48
   1   5  -1 1182.94   83.52
   1   5  -1 1174.13   79.17
   1   5  -1 1203.73   76.17
  -1  -5   1 1227.86   75.70
  -1  -5   1 1294.14   86.14
  -1  -5   1 1203.37   75.95
   0   5  -1   64.59   10.75
   0   5  -1   60.43   10.38
   0   5  -1   71.09   15.48
   0   5  -1   70.43   13.56
   0  -5   1   69.19    6.87
   0  -5   1   76.90   14.37
   0  -5   1   57.68   16.05
   0  -5   1   96.56   13.22
   0  -5   1   65.66   10.45
  -1   5  -1 1124.51   77.94
  -1   5  -1 1226.95   75.35
  -1   5  -1 1087.28   74.25
  -1   5  -1 1209.88   84.40
   1  -5   1 1108.08   84.30
   1  -5   1 1217.82   79.79
   1  -5   1 1228.52   76.03
   1  -5   1 1127.52   73.92
  -2   5  -1   29.01    7.88
  -2   5  -1   28.63    7.82
  -2   5  -1   19.09   12.20
  -2   5  -1   34.05    5.92
  -2   5  -1   33.75   10.59
   2  -5   1   43.00    8.55
   2  -5   1   39.87   11.38
   2  -5   1   22.36    8.12
  -3   5  -1  816.22   77.06
  -3   5  -1  838.88   64.70
  -3   5  -1  801.56   52.58
  -3   5  -1  761.67   47.55
  -3   5  -1  595.77   53.34
  -3   5  -1  695.33   51.21
   3  -5   1  834.24   54.50
   3  -5   1  759.06   51.37
   3  -5   1  759.73   57.04
  -4   5  -1    6.82   10.31
  -4   5  -1    9.74    6.14
  -4   5  -1   12.55    6.17
  -4   5  -1   43.87   22.43
  -4   5  -1    7.04    6.77
  -4   5  -1   14.24    3.90
   4  -5   1   15.36    8.08
   4  -5   1   12.04    5.58
   4  -5   1   10.35    8.84
  -5   5  -1 1133.42   87.23
  -5   5  -1 1123.74   65.73
  -5   5  -1  910.39   74.95
  -5   5  -1 1011.02   70.79
  -5   5  -1 1190.98  102.05
  -5   5  -1 1182.68   72.53
   5  -5   1 1050.00   77.61
   5  -5   1  993.08   70.80
   5  -5   1 1095.91   74.16
  -6   5  -1   64.12   24.73
  -6   5  -1   89.46   14.81
  -6   5  -1   79.18    8.12
  -6   5  -1  127.38   36.29
  -6   5  -1  100.34   15.90
   6  -5   1   82.06   19.26
   6  -5   1   92.06   18.14
  -7   5  -1  501.94   32.64
  -7   5  -1  546.25   56.50
  -7   5  -1  475.98   76.17
  -7   5  -1  497.33   39.03
   7  -5   1  501.57   46.54
   7  -5   1  481.94   42.30
  -8   5  -1   13.25    3.47
  -8   5  -1    5.02   20.47
  -8   5  -1   55.92   31.98
  -8   5  -1   19.93    8.99
   8  -5   1   -0.53    8.58
   8  -5   1    2.16    7.69
   8  -5   1   17.54    7.69
  -9   5  -1  224.05   46.46
  -9   5  -1  256.87   18.12
  -9   5  -1  281.28   25.42
  -9   5  -1  208.39   55.86
   9  -5   1  236.72   32.90
   9  -5   1  241.46   26.39
   9  -5   1  262.60   33.48
 -10   5  -1   -2.02   38.97
 -10   5  -1  -23.67   26.59
 -10   5  -1   31.76   10.25
  10  -5   1   25.45   12.98
  10  -5   1   40.98   13.53
  10  -5   1   53.52   14.14
 -11   5  -1   25.32   36.40
  11  -5   1  115.85   26.43
  11  -5   1  138.76   24.44
  11  -5   1  182.46   29.30
  11   4  -1   21.61    6.16
  11   4  -1   22.93    5.01
  11   4  -1   41.63    9.52
  11   4  -1   27.24   10.95
  10   4  -1  235.78   20.33
  10   4  -1  203.54   17.82
  10   4  -1  228.45   17.52
  10   4  -1  262.16   25.95
   9   4  -1   66.71   10.04
   9   4  -1   60.55    7.99
   9   4  -1   61.93   13.17
   9   4  -1   54.39    8.97
   8   4  -1  164.00   12.14
   8   4  -1  137.99   19.49
   8   4  -1  169.56   14.32
   8   4  -1  125.54   13.49
   7   4  -1   51.95    9.14
   7   4  -1   41.52    7.59
   7   4  -1   48.41    7.75
   7   4  -1   40.98    9.59
  -7  -4   1   36.28    6.58
   6   4  -1  772.27   54.30
   6   4  -1  775.96   52.96
   6   4  -1  875.85   50.38
   6   4  -1  789.90   48.35
   6   4  -1  763.01   49.99
  -6  -4   1  747.01   51.41
   5   4  -1   30.86    9.18
   5   4  -1   16.11    4.55
   5   4  -1   20.22    3.90
   5   4  -1   23.65    5.96
  -5  -4   1   17.21    6.24
   4   4  -1 1069.09   69.73
   4   4  -1 1094.57   68.07
   4   4  -1 1145.72   71.00
   4   4  -1 1167.50   75.77
   4   4  -1 1149.48   69.43
  -4  -4   1 1119.58   73.11
   3   4  -1   66.31   12.54
   3   4  -1   79.47    8.49
   3   4  -1   85.18    8.00
   3   4  -1   75.30    7.95
   3   4  -1   74.29   11.00
  -3  -4   1   74.12    7.64
  -3  -4   1   80.07   13.21
   2   4  -1  764.04   48.04
   2   4  -1  797.64   55.09
   2   4  -1  793.54   49.39
   2   4  -1  769.44   49.82
   2   4  -1  867.67   52.40
  -2  -4   1  849.86   56.31
  -2  -4   1  751.89   48.04
  -2  -4   1  730.94   47.79
  -2  -4   1  735.15   48.07
   1   4  -1  234.52   23.48
   1   4  -1  271.18   16.88
   1   4  -1  214.25   18.50
   1   4  -1  231.31   20.93
   1   4  -1  295.80   19.95
  -1  -4   1  206.22   23.21
  -1  -4   1  258.57   19.08
  -1  -4   1  258.05   18.92
  -1  -4   1  257.99   16.93
   0   4  -1 1797.96  114.63
   0  -4   1 1717.14  114.90
  -1   4  -1  213.71   20.28
  -1   4  -1  171.96   22.13
  -1   4  -1  185.84   17.12
  -1   4  -1  223.56   17.94
   1  -4   1  200.07   20.24
   1  -4   1  223.21   24.99
   1  -4   1  204.47   17.15
   1  -4   1  230.24   18.68
  -2   4  -1 1101.24   67.92
  -2   4  -1 1069.33   67.69
  -2   4  -1 1001.10   75.79
  -2   4  -1 1013.34   70.38
   2  -4   1  989.15   70.99
   2  -4   1 1149.51   78.21
   2  -4   1 1004.15   68.30
   2  -4   1 1101.25   67.31
  -3   4  -1    6.34    8.61
  -3   4  -1   -1.41    5.60
  -3   4  -1   -2.68    2.98
  -3   4  -1    5.98    2.58
  -3   4  -1    2.83    4.14
   3  -4   1    7.79    6.78
   3  -4   1    1.82    2.96
   3  -4   1   11.17    5.95
  -4   4  -1  752.33   44.14
  -4   4  -1  637.89   51.32
  -4   4  -1  714.72   48.69
  -4   4  -1  769.70   59.91
  -4   4  -1  703.67   48.56
  -4   4  -1  701.64   69.44
   4  -4   1  719.18   50.56
   4  -4   1  713.72   48.42
   4  -4   1  655.51   52.73
  -5   4  -1    6.81   18.24
  -5   4  -1   27.29   14.17
  -5   4  -1   38.29   11.63
  -5   4  -1   30.20    4.76
  -5   4  -1   38.11    9.07
  -5   4  -1   42.26    9.06
   5  -4   1   27.59    9.47
   5  -4   1   36.77    8.42
   5  -4   1   31.57   12.09
  -6   4  -1  642.42   40.79
  -6   4  -1  701.87   46.94
  -6   4  -1  611.45   50.72
  -6   4  -1  709.91   61.65
  -6   4  -1  823.70   76.02
  -6   4  -1  710.65   47.04
   6  -4   1  610.59   51.49
   6  -4   1  693.62   50.02
   6  -4   1  555.39   45.56
  -7   4  -1   31.02    4.76
  -7   4  -1   51.45   25.99
  -7   4  -1   36.52    9.38
  -7   4  -1   27.87    8.39
  -7   4  -1   63.61   21.90
   7  -4   1   37.40   13.75
   7  -4   1   33.04   11.48
  -8   4  -1  260.44   17.99
  -8   4  -1  252.30   23.74
  -8   4  -1  325.25   57.34
  -8   4  -1  264.19   23.56
  -8   4  -1  225.77   40.31
   8  -4   1  266.01   31.57
   8  -4   1  258.56   27.28
   8  -4   1  288.76   26.73
  -9   4  -1   -0.24    5.30
  -9   4  -1    6.89   28.51
  -9   4  -1   14.80    7.27
  -9   4  -1    1.81    2.05
  -9   4  -1  -10.39   19.49
   9  -4   1   -1.24    5.90
   9  -4   1    6.15    9.15
   9  -4   1    0.26    7.03
 -10   4  -1  359.07   67.64
 -10   4  -1  293.24   25.13
 -10   4  -1  326.99   25.81
  10  -4   1  286.36   30.38
  10  -4   1  235.08   28.12
  10  -4   1  308.36   35.39
 -11   4  -1   21.49    7.06
 -11   4  -1   25.64   44.91
 -11   4  -1   -2.13   30.99
  11  -4   1   23.83   13.21
  11  -4   1   18.87   11.28
  11  -4   1   33.62   11.80
  11   3  -1  213.33   28.33
  11   3  -1  209.43   19.97
  11   3  -1  189.32   17.19
  11   3  -1  172.99   16.87
  10   3  -1    5.16    5.58
  10   3  -1    9.80    7.66
  10   3  -1   17.45    4.94
  10   3  -1    5.49    5.03
  10   3  -1    2.23    3.15
 -10  -3   1    6.56    6.23
 -10  -3   1    0.31    5.46
   9   3  -1  246.81   26.39
   9   3  -1  325.21   21.54
   9   3  -1  289.45   22.71
   9   3  -1  303.41   23.90
   9   3  -1  294.15   22.26
  -9  -3   1  282.69   24.16
  -9  -3   1  280.55   23.48
   8   3  -1   23.65    8.01
   8   3  -1   24.34    6.38
   8   3  -1   34.74    7.34
   8   3  -1   33.99    5.53
  -8  -3   1   23.30    7.71
   7   3  -1  939.03   64.62
   7   3  -1  988.01   64.11
   7   3  -1  963.41   57.54
   7   3  -1  928.31   59.55
   7   3  -1  906.45   59.31
  -7  -3   1  968.62   62.16
   6   3  -1   26.36    5.27
   6   3  -1   32.00    9.46
   6   3  -1   26.64    5.06
   6   3  -1   61.11   10.28
  -6  -3   1   34.92    7.88
   5   3  -1  871.12   61.39
   5   3  -1  953.35   55.00
   5   3  -1  897.29   56.22
   5   3  -1  929.65   59.18
  -5  -3   1  904.94   59.25
   4   3  -1    8.63    3.39
   4   3  -1   11.97    5.50
   4   3  -1   18.25    3.22
   4   3  -1   10.47    3.94
  -4  -3   1   13.19    4.89
   3   3  -1 2415.10  153.09
  -3  -3   1 2583.64  152.06
   2   3  -1    1.94    3.67
   2   3  -1   21.93    5.45
   2   3  -1   17.83    3.64
   2   3  -1    5.82    2.57
   2   3  -1   12.15    3.69
  -2  -3   1    9.32    4.81
  -2  -3   1    4.74    2.15
  -2  -3   1   10.04    2.68
  -2  -3   1    7.46    2.36
   1   3  -1 4169.99  257.33
  -1  -3   1 4432.42  258.46
   0   3  -1   52.52    7.63
   0   3  -1   48.76   10.02
   0  -3   1   41.96    9.82
  -1   3  -1 3281.30  206.83
   1  -3   1 3482.72  208.20
  -2   3  -1   67.40    5.67
  -2   3  -1   62.42    8.83
  -2   3  -1   52.57    8.82
  -2   3  -1   41.76   10.88
   2  -3   1   42.49    9.92
   2  -3   1   71.60    9.83
   2  -3   1   39.09   11.30
   2  -3   1   54.17    8.67
  -3   3  -1 3305.05  205.63
   3  -3   1 3267.42  205.66
  -4   3  -1    9.19    9.66
  -4   3  -1    5.70    4.31
  -4   3  -1    4.29    4.21
  -4   3  -1    4.65    1.86
  -4   3  -1    6.68    6.84
  -4   3  -1    6.83    6.47
   4  -3   1   15.70    6.01
   4  -3   1    5.24    3.59
   4  -3   1    2.77    6.30
  -5   3  -1 1663.54  126.87
  -5   3  -1 1741.49  105.29
  -5   3  -1 1912.29  119.25
  -5   3  -1 1558.79  108.85
   5  -3   1 1677.75  110.48
   5  -3   1 1784.18  107.85
   5  -3   1 1589.62  105.03
  -6   3  -1   15.27   16.29
  -6   3  -1   11.01    9.81
  -6   3  -1    3.75    4.48
  -6   3  -1    4.27    4.37
  -6   3  -1    7.81    2.21
  -6   3  -1   10.10    7.73
   6  -3   1   11.49    8.99
   6  -3   1    8.20    4.84
   6  -3   1    4.70    5.55
  -7   3  -1  621.55   39.97
  -7   3  -1  570.42   34.24
  -7   3  -1  545.85   44.67
  -7   3  -1  564.69   39.45
  -7   3  -1  456.59   50.67
  -7   3  -1  570.18   63.41
   7  -3   1  550.10   40.37
   7  -3   1  563.44   46.62
   7  -3   1  486.24   41.48
  -8   3  -1   45.74    4.94
  -8   3  -1   47.51    9.57
  -8   3  -1   43.72   20.45
  -8   3  -1   23.78   21.75
  -8   3  -1   52.42    9.21
   8  -3   1   45.12   12.27
   8  -3   1   54.40   11.92
   8  -3   1   58.73   15.84
  -9   3  -1  284.61   21.55
  -9   3  -1  261.54   50.84
  -9   3  -1  261.67   20.85
  -9   3  -1  215.62   46.70
   9  -3   1  162.01   25.10
   9  -3   1  229.82   25.42
   9  -3   1  219.82   29.18
 -10   3  -1   -3.26    3.93
 -10   3  -1  -12.91   27.99
 -10   3  -1   -8.27   20.18
 -10   3  -1   -1.04    5.12
  10  -3   1    2.90    9.06
  10  -3   1   -7.80    4.42
  10  -3   1    4.64    5.70
 -11   3  -1  215.59   53.30
  11  -3   1  216.22   33.82
  11  -3   1  263.74   28.08
  11  -3   1  231.83   31.88
  12   2  -1  151.93   20.98
  12   2  -1  130.16   11.62
  12   2  -1  168.21   25.27
  12   2  -1  139.38   14.59
 -12  -2   1   83.14   21.10
 -12  -2   1   98.50   19.79
  11   2  -1    7.55    6.29
  11   2  -1    8.07    5.20
  11   2  -1    1.27    6.61
  11   2  -1   13.29    5.92
  11   2  -1   14.10    4.32
 -11  -2   1   -0.08   11.42
 -11  -2   1    6.99   14.41
  10   2  -1  222.46   19.01
  10   2  -1  239.01   17.53
  10   2  -1  217.32   19.80
  10   2  -1  225.52   24.63
  10   2  -1  221.11   21.08
 -10  -2   1  240.52   29.16
 -10  -2   1  205.36   25.80
   9   2  -1   17.78    6.23
   9   2  -1   14.42    4.58
   9   2  -1    7.46    5.57
   9   2  -1    2.32    4.77
   9   2  -1   17.94    4.05
  -9  -2   1   11.34   10.73
  -9  -2   1   12.85    9.60
   8   2  -1  744.04   49.30
   8   2  -1  664.77   47.27
   8   2  -1  763.75   47.32
   8   2  -1  753.65   49.51
   8   2  -1  788.14   54.25
  -8  -2   1  791.70   56.86
   7   2  -1   29.99    6.63
   7   2  -1   32.44    6.76
   7   2  -1   26.56    4.80
   7   2  -1   23.15    7.47
   7   2  -1   30.00    5.98
   7   2  -1   20.79   10.78
  -7  -2   1   30.80    9.80
   6   2  -1 1011.21   68.87
   6   2  -1 1089.48   73.40
   6   2  -1 1013.19   65.36
   6   2  -1 1094.50   65.70
  -6  -2   1 1091.76   71.69
   5   2  -1   54.72   11.64
   5   2  -1   41.19    5.96
   5   2  -1   27.84    4.94
   5   2  -1   47.53    8.19
  -5  -2   1   28.04    7.97
   4   2  -1 1845.96  119.82
  -4  -2   1 2012.91  119.20
   3   2  -1   61.70    6.53
   3   2  -1   42.68    8.30
   3   2  -1   47.92    4.53
   3   2  -1   50.11    5.34
  -3  -2   1   46.17    7.97
  -3  -2   1   63.39    7.59
   2   2  -1 2130.68  130.98
  -2  -2   1 2164.77  130.06
   1   2  -1   22.42    4.83
   1   2  -1   17.16    3.76
   1   2  -1   15.00    3.09
   1   2  -1   21.99    3.93
   1   2  -1   23.31    5.42
  -1  -2   1   15.97    3.07
  -1  -2   1   17.67    3.87
  -1  -2   1   25.09    5.89
  -1  -2   1   24.06    4.06
  -1  -2   1   21.88    4.71
   0   2  -1   37.83    5.65
   0  -2   1   52.71    5.69
  -1   2  -1  736.29   48.46
  -1   2  -1  662.78   43.25
  -1   2  -1  598.58   44.43
   1  -2   1  676.32   43.72
   1  -2   1  725.97   43.41
   1  -2   1  752.34   49.07
  -2   2  -1 1384.52   76.71
  -2   2  -1 1153.59   81.64
   2  -2   1 1183.64   82.39
  -3   2  -1  102.46   14.25
  -3   2  -1  103.84   10.45
  -3   2  -1  107.10   10.37
  -3   2  -1   92.71   12.39
  -3   2  -1  110.42    7.66
   3  -2   1  118.29   11.16
   3  -2   1  111.00   10.42
   3  -2   1  122.37   15.78
   3  -2   1  104.26   12.60
  -4   2  -1 1560.39  110.92
  -4   2  -1 1755.23  120.72
  -4   2  -1 1883.11  107.39
   4  -2   1 1578.49  102.84
  -5   2  -1  286.08   30.26
  -5   2  -1  332.64   37.81
  -5   2  -1  312.67   22.13
  -5   2  -1  273.05   25.10
  -5   2  -1  283.05   18.00
  -5   2  -1  282.92   21.53
   5  -2   1  283.48   26.33
   5  -2   1  289.88   23.52
   5  -2   1  270.59   21.97
  -6   2  -1 1161.32   88.43
  -6   2  -1  944.98   70.49
  -6   2  -1 1055.67   66.12
  -6   2  -1 1113.15   66.29
   6  -2   1 1012.43   71.86
   6  -2   1 1024.86   68.87
   6  -2   1 1049.04   67.32
  -7   2  -1  139.22   24.82
  -7   2  -1  137.02   30.07
  -7   2  -1  136.69   17.05
  -7   2  -1  116.15   12.40
  -7   2  -1  118.28   12.22
   7  -2   1  137.72   18.58
   7  -2   1  149.30   22.24
   7  -2   1  114.81   12.87
  -8   2  -1  792.62   65.01
  -8   2  -1  740.04   73.68
  -8   2  -1  699.06   55.03
  -8   2  -1  830.68   49.39
  -8   2  -1  848.64   48.95
   8  -2   1  774.01   54.75
   8  -2   1  732.81   53.76
   8  -2   1  703.04   51.06
   8  -2   1  579.18   54.91
  -9   2  -1   61.27    8.81
  -9   2  -1   88.02   32.01
  -9   2  -1  114.87   26.21
  -9   2  -1   60.74    8.93
   9  -2   1   73.79   14.90
   9  -2   1   74.34   14.80
   9  -2   1   68.79   17.00
 -10   2  -1  220.58   16.41
 -10   2  -1  194.04   37.46
 -10   2  -1  215.40   15.80
 -10   2  -1  176.73   45.44
  10  -2   1  161.63   28.09
  10  -2   1  171.94   26.03
  10  -2   1  234.85   24.36
 -11   2  -1   27.90   32.02
 -11   2  -1  -31.07   21.46
  11  -2   1   -2.85    5.00
  11  -2   1    6.21    7.25
  11  -2   1    5.94   10.21
  12  -2   1  152.26   23.95
  12  -2   1   91.09   20.93
  12  -2   1   91.01   20.81
  12   1  -1   50.67   11.10
  12   1  -1   48.02   14.04
  12   1  -1   67.07   14.31
  12   1  -1   44.22    6.75
 -12  -1   1   70.10   21.98
  11   1  -1  208.04   15.61
  11   1  -1  254.11   31.44
  11   1  -1  181.09   20.20
  11   1  -1  211.55   21.79
 -11  -1   1  222.35   35.05
 -11  -1   1  196.09   29.89
  10   1  -1   15.89    5.56
  10   1  -1    8.91    6.21
  10   1  -1   11.54    7.14
  10   1  -1    6.73    6.06
  10   1  -1   14.75    3.76
 -10  -1   1   13.64   12.09
 -10  -1   1   14.08   15.64
   9   1  -1  355.66   25.39
   9   1  -1  378.49   29.84
   9   1  -1  377.38   27.65
   9   1  -1  417.21   34.16
   9   1  -1  374.51   29.87
  -9  -1   1  376.11   36.61
  -9  -1   1  389.29   40.74
   8   1  -1    4.69    5.34
   8   1  -1   13.23    5.73
   8   1  -1   10.55    3.97
   8   1  -1    8.87    3.22
   8   1  -1   10.93    6.10
  -8  -1   1   11.79   11.37
   7   1  -1  586.40   41.88
   7   1  -1  561.50   38.62
   7   1  -1  601.58   39.18
   7   1  -1  518.40   36.14
   7   1  -1  580.35   36.82
   7   1  -1  548.11   49.29
  -7  -1   1  572.30   47.77
   6   1  -1    4.86    3.31
   6   1  -1   11.04    7.67
   6   1  -1   10.77    3.19
   6   1  -1    7.34    4.05
   6   1  -1    3.47    4.07
   6   1  -1    0.40    2.05
  -6  -1   1    3.55    6.89
   5   1  -1  948.89   68.98
   5   1  -1 1022.14   61.36
   5   1  -1 1040.89   60.62
   5   1  -1  955.93   63.66
   5   1  -1  980.41   61.22
  -5  -1   1  981.82   68.12
   4   1  -1   14.50    2.68
   4   1  -1   10.35    3.16
   4   1  -1   18.50    3.57
   4   1  -1   19.28    6.95
   4   1  -1   15.36    4.32
  -4  -1   1   11.47    6.12
   3   1  -1 1153.27   73.85
  -3  -1   1 1113.26   70.13
  -3  -1   1 1171.48   73.32
   2   1  -1   45.80    5.58
   2   1  -1   35.87    3.55
   2   1  -1   44.42    7.91
   2   1  -1   46.95    4.55
  -2  -1   1   35.11    3.18
  -2  -1   1   45.41    5.63
  -2  -1   1   34.78    3.47
  -2  -1   1   56.46    7.36
   1   1  -1 5014.75  292.86
  -1  -1   1 4930.99  292.30
   0   1  -1  659.88   41.84
   0  -1   1  623.55   41.68
  -1   1  -1 4430.86  260.52
   1  -1   1 4363.79  260.64
  -2   1  -1  176.60   13.66
  -2   1  -1  161.36   11.12
  -2   1  -1  156.49   11.06
  -2   1  -1  141.62   14.36
  -2   1  -1  118.94    8.68
   2  -1   1  129.28   10.85
   2  -1   1  124.71   10.61
   2  -1   1  162.45   13.55
   2  -1   1  119.59   13.66
  -3   1  -1  908.48   56.95
   3  -1   1  833.83   54.78
   3  -1   1  875.95   59.96
   3  -1   1  904.52   57.38
  -4   1  -1   -1.76    3.51
  -4   1  -1    6.49    3.13
  -4   1  -1    3.12    7.89
  -4   1  -1    6.57    2.93
  -4   1  -1    5.10    1.10
   4  -1   1    4.51    0.96
   4  -1   1    5.56    3.64
   4  -1   1    6.30    3.06
   4  -1   1    7.18    5.58
  -5   1  -1 1182.39   83.23
  -5   1  -1 1010.03   66.29
  -5   1  -1 1121.77   76.02
   5  -1   1 1061.86   68.64
   5  -1   1 1175.62   72.35
   5  -1   1 1024.52   67.43
  -6   1  -1    9.17    3.59
  -6   1  -1    4.69    3.02
  -6   1  -1   16.62    9.50
  -6   1  -1    5.60    5.08
  -6   1  -1   -1.98    9.29
   6  -1   1    4.09    1.03
   6  -1   1    1.91    5.83
   6  -1   1   14.86    4.62
   6  -1   1    1.82    3.82
  -7   1  -1  823.44   50.75
  -7   1  -1  905.59   64.99
  -7   1  -1  765.95   56.69
  -7   1  -1  927.80   73.41
  -7   1  -1  833.88   51.00
   7  -1   1  776.27   53.51
   7  -1   1  747.13   57.95
   7  -1   1  843.84   55.65
  -8   1  -1   13.09    3.52
  -8   1  -1    7.77    6.29
  -8   1  -1   32.00   17.75
  -8   1  -1   27.27   13.04
  -8   1  -1   15.42    3.55
   8  -1   1   10.65    1.61
   8  -1   1    5.59    7.61
   8  -1   1    6.71    6.28
   8  -1   1   24.50    7.46
   8  -1   1    8.50    5.17
  -9   1  -1  570.29   51.61
  -9   1  -1  595.26   61.62
  -9   1  -1  485.44   41.26
  -9   1  -1  522.78   32.09
   9  -1   1  524.64   38.42
   9  -1   1  465.92   39.76
   9  -1   1  598.65   46.10
   9  -1   1  519.22   42.12
 -10   1  -1   31.71   23.66
 -10   1  -1   20.11   17.45
  10  -1   1   14.59    9.96
  10  -1   1    7.72    7.43
  10  -1   1    1.98    5.07
 -11   1  -1   58.41   32.50
 -11   1  -1  193.02   35.30
  11  -1   1  161.07   22.22
  11  -1   1  139.79   22.95
  11  -1   1  144.50   25.60
 -12   1  -1  -11.60   21.79
  12  -1   1   43.39   12.17
  12  -1   1    8.69    7.76
  12  -1   1   23.08   11.15
  12   0  -1  176.38   24.54
  12   0  -1  133.45   23.48
  12   0  -1  167.81   19.31
 -12   0   1  113.24   29.99
  11   0  -1   59.48   12.88
  11   0  -1   30.17    9.85
  11   0  -1   15.83    8.36
  11   0  -1   42.09    5.79
 -11   0   1   46.20   26.88
 -11   0   1   39.82   19.79
  10   0  -1  269.16   25.03
  10   0  -1  250.65   26.06
  10   0  -1  245.90   24.43
  10   0  -1  252.27   18.01
 -10   0   1  283.95   35.32
 -10   0   1  237.99   21.92
 -10   0   1  271.27   42.32
   9   0  -1   76.96   13.93
   9   0  -1   85.32   14.57
   9   0  -1   73.35   11.78
   9   0  -1   79.89    7.69
   9   0  -1  101.39   17.06
  -9   0   1   90.13   11.04
  -9   0   1   74.57   23.72
  -9   0   1  101.19   21.56
   8   0  -1  470.88   28.86
   8   0  -1  420.42   33.04
   8   0  -1  442.26   35.72
   8   0  -1  451.30   34.09
   8   0  -1  434.81   31.42
  -8   0   1  465.89   46.41
  -8   0   1  413.36   31.63
   7   0  -1   82.76    7.77
   7   0  -1  103.18   11.38
   7   0  -1   97.62   12.43
   7   0  -1  127.58   16.63
   7   0  -1   96.94    9.95
   7   0  -1   79.25   19.59
  -7   0   1   91.35   10.34
  -7   0   1   92.22   19.92
   6   0  -1  326.18   22.24
   6   0  -1  350.07   23.79
   6   0  -1  302.32   24.74
   6   0  -1  300.32   34.51
   6   0  -1  392.09   28.01
  -6   0   1  415.86   37.20
   5   0  -1   27.42    6.36
   5   0  -1   29.28    4.28
   5   0  -1   31.26    5.29
   5   0  -1   31.90    6.30
   5   0  -1   13.98    8.81
   5   0  -1   28.09    7.00
  -5   0   1   27.47    5.62
  -5   0   1   28.92    4.09
  -5   0   1   45.50   13.03
   4   0  -1 1496.86  100.54
  -4   0   1 1552.23  100.54
   3   0  -1  181.39   11.97
   3   0  -1  185.00   12.86
   3   0  -1  170.13   18.27
   3   0  -1  210.77   12.25
   3   0  -1  156.66   12.79
   3   0  -1  181.05   14.03
  -3   0   1  182.66   18.18
  -3   0   1  192.08   12.67
  -3   0   1  159.70   13.53
  -3   0   1  143.61   11.27
  -3   0   1  172.71   12.23
   2   0  -1 1914.12  115.23
  -2   0   1 1811.14  114.46
   1   0  -1  176.93   13.79
   1   0  -1  232.89   14.11
   1   0  -1  211.59   16.68
  -1   0   1  209.85   16.43
  -1   0   1  226.97   14.16
  -1   0   1  219.77   13.93
   1   0   1  697.74   43.62
  -2   0  -1   17.01    3.91
   2   0   1    6.83    2.98
  -3   0  -1  218.27   15.98
  -3   0  -1  184.44   12.99
  -3   0  -1  214.85   13.13
  -3   0  -1  193.10   17.05
   3   0   1  190.29   13.64
   3   0   1  203.37   13.93
   3   0   1  188.73   16.01
  -4   0  -1 5485.15  322.69
  -4   0  -1 5214.71  317.70
  -5   0  -1    1.38    2.97
  -5   0  -1    1.54    1.51
  -5   0  -1    0.75    4.53
  -5   0  -1   -0.53    6.43
  -5   0  -1    3.13    1.65
   5   0   1    1.60    0.82
   5   0   1    2.73    4.23
   5   0   1    2.95    2.38
   5   0   1    3.01    2.84
  -6   0  -1 1673.73  105.55
  -6   0  -1 1744.77  111.94
   6   0   1 1450.06  101.11
  -7   0  -1   14.70   12.41
  -7   0  -1   23.66    7.25
  -7   0  -1    6.13    7.47
   7   0   1   18.36    4.89
   7   0   1   20.64    5.79
   7   0   1   18.36    2.44
   7   0   1   13.62    6.99
  -8   0  -1  586.72   56.08
  -8   0  -1  622.71   49.77
  -8   0  -1  643.48   44.10
   8   0   1  592.42   40.45
   8   0   1  550.34   44.18
   8   0   1  562.53   45.12
   8   0   1  586.33   35.65
   8   0   1  604.14   42.25
  -9   0  -1   21.00   15.82
  -9   0  -1   28.53    8.52
  -9   0  -1   36.24   13.96
   9   0   1   22.47    7.25
   9   0   1   19.75    8.87
   9   0   1   21.96   10.21
   9   0   1   19.74    2.54
   9   0   1   20.40    5.95
 -10   0  -1  373.63   48.03
 -10   0  -1  344.92   37.04
 -10   0  -1  324.76   28.61
  10   0   1  282.87   27.77
  10   0   1  306.57   31.34
  10   0   1  355.78   29.21
  10   0   1  309.02   19.24
  10   0   1  339.65   31.14
 -11   0  -1  -17.33   17.08
 -11   0  -1   13.49   23.50
  11   0   1    3.62    7.92
  11   0   1    4.19    7.04
  11   0   1   12.45    7.58
 -12   0  -1  144.21   31.13
  12   0   1  165.18   23.24
  12   0   1  148.22   25.18
  12   0   1  168.86   26.83
  12  -1  -1   15.88    3.17
  12  -1  -1    5.38    8.52
  12  -1  -1    5.73    7.53
  12  -1  -1   16.46   10.48
 -12   1   1  -22.99   23.26
  11  -1  -1  247.21   24.36
  11  -1  -1  186.78   13.92
  11  -1  -1  194.36   23.00
  11  -1  -1  220.23   29.62
 -11   1   1  199.86   20.63
 -11   1   1  175.20   35.28
 -11   1   1  126.30   37.14
  10  -1  -1   22.74    9.24
  10  -1  -1   15.78    8.48
  10  -1  -1   24.03   10.02
  10  -1  -1   14.97    3.25
 -10   1   1   11.21   16.52
 -10   1   1   18.86    6.85
 -10   1   1   14.82   22.59
   9  -1  -1  307.88   20.50
   9  -1  -1  299.48   24.74
   9  -1  -1  294.18   27.03
   9  -1  -1  287.29   27.69
   9  -1  -1  252.26   27.53
  -9   1   1  408.11   41.13
  -9   1   1  399.30   47.61
  -9   1   1  291.82   26.29
   8  -1  -1   55.98   12.26
   8  -1  -1   56.10    5.69
   8  -1  -1   60.24   10.12
   8  -1  -1   57.69   12.29
   8  -1  -1   39.12    9.94
  -8   1   1   62.39   20.70
  -8   1   1   43.18    6.28
  -8   1   1   43.38    9.59
  -8   1   1   52.94    5.73
  -8   1   1   62.66   18.12
   7  -1  -1  440.00   29.70
   7  -1  -1  457.76   35.71
   7  -1  -1  462.51   33.15
   7  -1  -1  458.62   35.07
   7  -1  -1  430.41   35.89
  -7   1   1  462.68   35.04
  -7   1   1  526.55   31.67
  -7   1   1  479.55   48.78
  -7   1   1  508.77   30.46
   6  -1  -1   63.88    5.91
   6  -1  -1   78.05   12.79
   6  -1  -1   56.54   10.09
   6  -1  -1   50.62   17.26
   6  -1  -1   63.59    9.54
   6  -1  -1   57.00   10.66
  -6   1   1   83.87   12.45
  -6   1   1   62.13    8.55
  -6   1   1   86.68   20.41
  -6   1   1   63.25    6.61
   5  -1  -1 1918.45  134.33
  -5   1   1 2065.90  134.67
   4  -1  -1  425.99   29.13
   4  -1  -1  368.76   28.83
   4  -1  -1  479.06   39.78
   4  -1  -1  422.03   29.56
   4  -1  -1  408.13   27.73
   4  -1  -1  422.81   25.97
  -4   1   1  421.93   38.25
  -4   1   1  398.80   29.27
  -4   1   1  435.01   26.33
  -4   1   1  430.64   28.18
   3  -1  -1 3628.56  222.95
  -3   1   1 3607.06  222.81
   2  -1  -1    0.08    1.69
   2  -1  -1   -0.73    2.15
   2  -1  -1    0.94    2.05
   2  -1  -1    5.97    4.69
  -2   1   1    5.32    2.22
  -2   1   1    2.17    2.12
  -2   1   1   -0.11    3.85
  -2   1   1    1.30    1.05
   1  -1  -1 2508.08  150.65
  -1   1   1 2434.97  150.37
   0   1   1  301.11   21.59
  -1  -1  -1 2572.76  153.47
   1   1   1 2656.23  153.44
  -2  -1  -1  361.13   22.22
   2   1   1  344.03   22.13
  -3  -1  -1 1018.79   63.54
  -3  -1  -1  997.88   61.55
  -4  -1  -1    3.90    4.41
  -4  -1  -1    9.24    3.64
   4   1   1   13.03    2.27
  -5  -1  -1  767.54   53.14
  -5  -1  -1  785.40   56.84
   5   1   1  933.66   49.72
   5   1   1  733.02   48.71
  -6  -1  -1    8.67    5.46
  -6  -1  -1   15.25    8.17
   6   1   1   14.26    3.55
   6   1   1   11.98    3.78
  -7  -1  -1  682.56   48.20
  -7  -1  -1  745.85   45.47
  -7  -1  -1  676.28   53.25
   7   1   1  633.91   42.82
   7   1   1  613.28   39.64
   7   1   1  614.20   46.18
   7   1   1  648.47   41.87
   7   1   1  627.24   46.15
  -8  -1  -1   39.93    8.39
  -8  -1  -1   13.60   12.87
  -8  -1  -1   14.81    9.00
   8   1   1   34.22    9.94
   8   1   1   29.84    3.99
   8   1   1   36.44    6.69
   8   1   1   27.84    8.87
   8   1   1   28.69    7.07
  -9  -1  -1  477.46   39.42
  -9  -1  -1  497.69   46.87
   9   1   1  411.56   37.03
   9   1   1  460.22   28.53
   9   1   1  461.73   38.04
   9   1   1  455.80   34.03
   9   1   1  459.91   32.51
 -10  -1  -1   40.47   18.14
 -10  -1  -1    4.33   11.14
  10   1   1   11.16    2.19
  10   1   1    6.79    4.97
  10   1   1   13.09    8.61
  10   1   1    6.23    5.49
  10   1   1   12.52    7.35
 -11  -1  -1  148.78   25.94
 -11  -1  -1  203.19   33.42
  11   1   1  214.03   20.39
  11   1   1  159.25   25.27
  11   1   1  161.50   24.64
  11   1   1  159.00   11.19
  11   1   1  168.42   11.16
 -12  -1  -1   25.83   17.50
 -12  -1  -1    0.45   23.22
  12   1   1   15.93    8.61
  12   1   1   -0.42    7.75
  12   1   1   14.24    9.23
  12  -2  -1  158.55   25.85
  12  -2  -1  125.58   21.90
  12  -2  -1  149.79   25.79
  12  -2  -1  140.09   10.18
  11  -2  -1   19.43    9.79
  11  -2  -1   12.53    2.72
  11  -2  -1   14.51    9.32
  11  -2  -1   10.81    9.02
 -11   2   1   95.15   33.66
 -11   2   1   14.59   23.00
  10  -2  -1  215.67   24.90
  10  -2  -1  208.47   15.81
  10  -2  -1  255.66   26.47
  10  -2  -1  196.46   24.62
 -10   2   1  252.85   24.70
 -10   2   1  264.22   40.68
 -10   2   1  258.06   18.03
 -10   2   1  229.96   16.95
 -10   2   1  303.54   51.95
   9  -2  -1    0.56    5.42
   9  -2  -1    7.44    6.39
   9  -2  -1    1.83    6.34
   9  -2  -1    0.15    1.62
  -9   2   1    5.28    4.57
  -9   2   1    2.97    3.41
  -9   2   1   -9.42   19.31
  -9   2   1   15.38   17.50
  -9   2   1   -2.80    4.50
   8  -2  -1  825.46   63.44
   8  -2  -1  990.61   67.26
   8  -2  -1  973.52   59.11
   8  -2  -1  940.34   67.88
   8  -2  -1 1032.80   68.35
  -8   2   1 1085.34   89.03
  -8   2   1 1092.74   61.46
  -8   2   1 1025.08   62.66
  -8   2   1 1036.27   78.69
  -8   2   1  827.59   66.18
   7  -2  -1    5.62    4.68
   7  -2  -1    5.44    2.12
   7  -2  -1   -1.48    4.20
   7  -2  -1    4.73    6.56
   7  -2  -1    5.98    4.13
  -7   2   1    0.35    5.25
  -7   2   1   -7.97   12.68
  -7   2   1    6.55    4.83
  -7   2   1   24.94   12.43
  -7   2   1    2.11    3.45
  -7   2   1    5.49    2.75
   6  -2  -1  942.60   65.74
   6  -2  -1  899.77   63.62
   6  -2  -1  995.79   66.25
   6  -2  -1 1008.51   67.35
   6  -2  -1 1116.55   60.45
  -6   2   1  983.70   67.08
  -6   2   1 1034.35   60.85
  -6   2   1  960.72   62.19
  -6   2   1 1000.79   63.86
  -6   2   1 1017.96   82.57
   5  -2  -1   92.62   12.59
   5  -2  -1   79.13   21.74
   5  -2  -1  102.08    7.56
   5  -2  -1   98.17   13.57
   5  -2  -1   93.94   12.38
   5  -2  -1   85.87   11.69
  -5   2   1   96.60   12.83
  -5   2   1  106.28   22.63
  -5   2   1   91.00   10.35
  -5   2   1   86.04    7.61
  -5   2   1   88.36    9.28
   4  -2  -1 2196.34  142.18
  -4   2   1 1978.04  139.39
   3  -2  -1  383.87   25.56
   3  -2  -1  362.89   26.94
   3  -2  -1  394.07   36.16
   3  -2  -1  382.11   26.46
   3  -2  -1  344.01   24.85
   3  -2  -1  369.75   22.85
  -3   2   1  365.58   25.72
  -3   2   1  364.81   24.70
  -3   2   1  373.38   35.26
  -3   2   1  331.27   26.62
   2  -2  -1 6249.64  379.80
  -2   2   1 6383.57  379.67
   1  -2  -1  194.27   14.10
   1  -2  -1  207.43   20.77
   1  -2  -1  186.96   13.26
   1  -2  -1  200.84   14.95
   1  -2  -1  216.55   13.06
   1  -2  -1  203.75   15.64
  -1   2   1  191.80   15.65
  -1   2   1  201.69   13.30
  -1   2   1  190.85   20.08
  -1   2   1  174.88   14.54
  -1   2   1  208.62   13.03
  -1   2   1  200.01   14.13
   0   2   1 6457.75  381.82
  -1  -2  -1  135.41   12.40
   1   2   1  136.37   12.40
   1   2   1  149.22    9.55
   1   2   1  134.73    8.97
   1   2   1  132.98    9.26
   2   2   1 8246.56  478.67
  -4  -2  -1  893.67   54.04
  -4  -2  -1  935.06   54.58
  -5  -2  -1  234.01   18.21
  -5  -2  -1  224.22   16.80
   5   2   1  238.88   14.60
   5   2   1  247.47   14.81
   5   2   1  229.57   19.09
   5   2   1  260.57   19.24
  -6  -2  -1  537.35   35.57
  -6  -2  -1  555.64   37.91
   6   2   1  524.93   33.21
   6   2   1  543.63   37.48
   6   2   1  507.71   32.59
   6   2   1  544.27   38.08
  -7  -2  -1   58.89   11.26
  -7  -2  -1   39.11    8.01
   7   2   1   47.12    5.43
   7   2   1   58.66   10.98
   7   2   1   52.57    7.13
   7   2   1   44.27    9.30
  -8  -2  -1  777.22   52.82
  -8  -2  -1  697.56   48.64
   8   2   1  658.12   43.92
   8   2   1  720.93   45.06
   8   2   1  661.45   49.89
   8   2   1  736.51   46.36
   8   2   1  749.75   51.80
  -9  -2  -1   28.91    9.88
  -9  -2  -1   30.29   11.77
   9   2   1   25.90    6.72
   9   2   1   21.03    5.34
   9   2   1   29.09   10.25
   9   2   1   20.73    7.90
   9   2   1   32.49    5.03
 -10  -2  -1  167.81   19.57
 -10  -2  -1  193.50   24.12
  10   2   1  133.01   11.39
  10   2   1  146.13   14.44
  10   2   1  152.39   19.71
  10   2   1  194.06   25.67
  10   2   1  179.99   16.57
 -11  -2  -1   44.06   15.96
 -11  -2  -1   44.99   12.20
  11   2   1   36.55   11.98
  11   2   1   25.28    3.96
  11   2   1   27.30    8.03
  11   2   1   30.04    7.19
  11   2   1   22.98    3.76
  11   2   1   31.65   11.92
 -12  -2  -1  164.57   21.36
 -12  -2  -1  109.34   20.68
  12   2   1  139.54   19.37
  12   2   1  128.11   10.06
  12   2   1  172.04   21.11
  12   2   1  156.38   23.95
  12  -3  -1   12.06   10.28
  12  -3  -1   19.16   11.20
  12  -3  -1    3.40    8.43
 -12   3   1    9.05   29.62
  11  -3  -1  138.98   10.82
  11  -3  -1  117.75   22.33
  11  -3  -1  151.29   25.13
  11  -3  -1  182.11   27.28
 -11   3   1  138.48   46.47
 -11   3   1  154.55   13.67
  10  -3  -1   28.16    4.22
  10  -3  -1   31.37   11.18
  10  -3  -1   13.37    8.63
  10  -3  -1   20.66    9.90
 -10   3   1   42.93    7.98
 -10   3   1   -5.45   28.65
 -10   3   1   26.66   22.18
 -10   3   1   30.90    6.73
   9  -3  -1  453.98   38.01
   9  -3  -1  472.13   38.40
   9  -3  -1  413.24   38.21
   9  -3  -1  427.52   27.99
  -9   3   1  416.84   49.94
  -9   3   1  352.43   36.35
  -9   3   1  445.79   59.07
  -9   3   1  451.99   33.08
  -9   3   1  492.74   31.88
   8  -3  -1   38.47   12.01
   8  -3  -1   32.69   10.13
   8  -3  -1   48.92   12.04
   8  -3  -1   41.13    5.61
  -8   3   1   48.86   10.18
  -8   3   1   47.15   11.98
  -8   3   1   -6.43   20.10
  -8   3   1   46.39    6.59
  -8   3   1   57.30    9.53
   7  -3  -1  797.22   54.92
   7  -3  -1  753.63   52.61
   7  -3  -1  736.97   56.30
   7  -3  -1  782.07   55.49
   7  -3  -1  765.49   47.24
  -7   3   1  762.67   65.64
  -7   3   1  788.26   47.94
  -7   3   1  787.48   75.10
  -7   3   1  829.52   52.74
  -7   3   1  660.95   55.23
  -7   3   1  802.30   50.81
   6  -3  -1    7.38    2.46
   6  -3  -1    8.55    6.94
   6  -3  -1    7.42    4.25
   6  -3  -1   10.69    5.49
   6  -3  -1    5.09    4.79
  -6   3   1    2.73    9.51
  -6   3   1    4.88    6.35
  -6   3   1    7.67    2.72
  -6   3   1    5.72    4.67
  -6   3   1    1.70    3.51
  -6   3   1   10.95   17.35
   5  -3  -1  429.82   32.36
   5  -3  -1  396.44   29.83
   5  -3  -1  383.63   26.18
   5  -3  -1  449.28   34.14
   5  -3  -1  420.59   30.95
  -5   3   1  416.07   33.53
  -5   3   1  399.61   29.31
  -5   3   1  464.05   47.71
  -5   3   1  408.93   30.73
  -5   3   1  413.82   26.51
   4  -3  -1  349.76   27.04
   4  -3  -1  328.29   27.64
   4  -3  -1  382.41   22.28
   4  -3  -1  323.73   25.05
   4  -3  -1  352.42   25.55
  -4   3   1  285.74   27.20
  -4   3   1  319.80   37.71
  -4   3   1  351.61   25.12
  -4   3   1  327.26   25.89
  -4   3   1  353.17   22.23
   3  -3  -1 2314.18  158.43
  -3   3   1 2411.51  157.86
   2  -3  -1  132.89   10.40
   2  -3  -1  111.89   10.58
   2  -3  -1  168.39   26.84
   2  -3  -1  116.69   11.96
   2  -3  -1  139.80   13.87
   2  -3  -1  121.21    9.16
  -2   3   1  100.39   10.57
  -2   3   1  153.54   24.93
  -2   3   1  131.38    9.34
  -2   3   1  122.09   12.86
  -2   3   1  115.85   11.49
   1  -3  -1  836.38   48.10
   1  -3  -1  735.98   57.49
  -1   3   1  742.34   56.91
  -1   3   1  717.74   48.81
  -1   3   1  681.06   47.10
   0  -3  -1    3.49    1.70
   0  -3  -1    3.78    2.73
   0  -3  -1    7.08    2.53
   0  -3  -1    1.89    0.83
   0   3   1    8.66    2.13
   0   3   1    4.51    5.25
   0   3   1    9.01    3.25
   0   3   1    1.59    2.10
   0   3   1   13.19    4.71
   1   3   1 1415.44   88.80
   1   3   1 1442.70   91.98
   2   3   1  740.70   47.14
   2   3   1  755.79   49.43
   3   3   1 4473.43  255.55
   3   3   1 4291.42  255.10
   4   3   1  336.75   23.77
   5   3   1  976.38   62.30
   6   3   1   24.82    6.45
   6   3   1   18.40    5.63
   6   3   1   15.16    1.72
   7   3   1  758.47   46.50
   7   3   1  742.00   45.63
   7   3   1  758.61   52.60
   7   3   1  793.42   51.58
   8   3   1   43.97    6.74
   8   3   1   41.39    9.71
   8   3   1   41.24    5.60
   8   3   1   51.67   11.51
   9   3   1  328.09   23.40
   9   3   1  329.52   28.80
   9   3   1  336.95   30.15
   9   3   1  347.97   24.72
   9   3   1  336.15   23.36
  10   3   1   31.00    7.63
  10   3   1   24.40    4.99
  10   3   1   20.94    9.04
  10   3   1   26.17    5.93
  10   3   1   20.00    9.32
  11   3   1  203.99   15.29
  11   3   1  199.67   15.26
  11   3   1  230.61   24.90
  11   3   1  171.67   21.40
  11   3   1  193.28   17.29
  11   3   1  201.47   18.92
  12   3   1    7.12    8.40
  12   3   1   22.74    7.95
  12   3   1    3.71    7.81
  12   3   1   12.76    3.48
  12   3   1   10.84    3.28
  11  -4  -1   20.54   11.22
  11  -4  -1   33.68   13.23
  11  -4  -1   31.65   12.88
 -11   4   1   27.06    7.03
 -11   4   1    2.18   29.31
 -11   4   1  -44.97   38.72
  10  -4  -1  252.06   18.12
  10  -4  -1  265.83   34.88
  10  -4  -1  274.17   28.90
  10  -4  -1  264.26   31.02
 -10   4   1  249.76   23.28
 -10   4   1  310.08   60.04
 -10   4   1  277.26   22.85
   9  -4  -1   22.21    9.65
   9  -4  -1   20.20   10.73
   9  -4  -1   14.99    9.58
   9  -4  -1   22.84    4.29
  -9   4   1   26.26   27.15
  -9   4   1   25.30    7.54
  -9   4   1   30.01   20.78
  -9   4   1   28.51    5.47
  -9   4   1   38.74    9.38
   8  -4  -1  174.09   23.60
   8  -4  -1  168.54   13.41
   8  -4  -1  159.44   22.96
   8  -4  -1  222.50   28.24
  -8   4   1  243.87   20.19
  -8   4   1  173.71   14.19
  -8   4   1  149.85   32.54
  -8   4   1  194.84   18.30
  -8   4   1  171.55   23.23
  -8   4   1  204.09   45.93
   7  -4  -1   -0.62    6.42
   7  -4  -1    6.68    2.55
   7  -4  -1    0.81    5.08
   7  -4  -1    3.68    5.45
  -7   4   1    8.37    2.94
  -7   4   1    7.41    5.59
  -7   4   1  -17.67   17.96
  -7   4   1   -2.02    4.46
  -7   4   1   -1.42    6.20
  -7   4   1    5.72   13.59
   6  -4  -1  695.55   53.36
   6  -4  -1  708.53   43.82
   6  -4  -1  735.87   49.89
   6  -4  -1  739.31   49.32
   6  -4  -1  703.92   51.71
  -6   4   1  681.67   70.47
  -6   4   1  737.03   63.50
  -6   4   1  645.96   52.78
  -6   4   1  694.89   43.99
  -6   4   1  730.08   48.24
  -6   4   1  660.81   49.06
   5  -4  -1    4.15    4.18
   5  -4  -1   10.94    2.95
   5  -4  -1    2.38    5.00
   5  -4  -1    8.55    6.97
   5  -4  -1   12.63    4.78
  -5   4   1   14.55    5.64
  -5   4   1    5.17    4.45
  -5   4   1    8.66    2.86
  -5   4   1   -4.06    5.47
  -5   4   1   15.54   15.01
  -5   4   1    5.52   10.07
   4  -4  -1 1136.14   74.54
   4  -4  -1 1134.06   69.64
   4  -4  -1 1079.50   70.04
   4  -4  -1 1047.97   71.91
  -4   4   1 1171.85   90.57
  -4   4   1 1102.22   69.89
  -4   4   1  987.27   79.59
  -4   4   1 1105.54   71.22
  -4   4   1 1067.69   73.69
   3  -4  -1  125.28   14.63
   3  -4  -1  146.81   11.03
   3  -4  -1  169.46   17.62
   3  -4  -1  124.79   12.21
   3  -4  -1  160.82   14.15
  -3   4   1  148.92   13.68
  -3   4   1  126.12   16.11
  -3   4   1  162.91   22.01
  -3   4   1  145.43   14.55
  -3   4   1  163.63   29.84
  -3   4   1  138.94   11.07
   2  -4  -1 1351.65   79.21
   2  -4  -1 1235.04   80.71
  -2   4   1 1277.28   93.30
  -2   4   1 1131.30   77.68
  -2   4   1 1267.98   80.68
  -2   4   1 1169.93   85.17
   1  -4  -1    9.83    2.39
   1  -4  -1   12.66    4.14
   1  -4  -1    9.92    2.67
   1  -4  -1   20.13    5.55
  -1   4   1    9.63    4.48
  -1   4   1    5.83    2.47
  -1   4   1    1.05    4.32
  -1   4   1    9.67    9.06
  -1   4   1   26.56    5.48
   0   4   1 5672.55  342.42
   0   4   1 5567.65  336.55
  -1  -4  -1   34.87    5.29
  -1  -4  -1   32.05    4.70
   1   4   1   18.42    6.35
   1   4   1   38.88    8.08
   1   4   1   12.18    7.49
   1   4   1   35.98    5.11
   1   4   1   32.98    5.46
   1   4   1   21.53    4.98
   2   4   1 2467.99  152.05
   2   4   1 2408.80  147.69
   3   4   1   95.72    9.37
   3   4   1   84.79    7.54
   3   4   1   91.85   11.29
   3   4   1   90.85    7.12
   3   4   1   80.18    6.83
   5   4   1    7.55    3.59
   6   4   1 1411.74   89.34
   6   4   1 1470.33   90.42
   7   4   1    4.26    4.11
   7   4   1    9.49    5.44
   7   4   1    4.43    1.66
   8   4   1  668.72   47.36
   8   4   1  636.00   45.21
   8   4   1  640.40   40.26
   8   4   1  645.03   39.10
   9   4   1   39.56   10.51
   9   4   1   28.38    8.82
   9   4   1   38.12    5.35
   9   4   1   38.65    6.47
  10   4   1  451.28   35.36
  10   4   1  332.90   30.55
  10   4   1  373.23   26.78
  10   4   1  378.81   25.30
  10   4   1  334.97   25.85
  11   4   1   -2.15    6.30
  11   4   1   15.38    9.46
  11   4   1    2.46    4.50
  11   4   1   11.42    4.38
  11   4   1   21.76    4.99
  11   4   1    6.69    3.97
  11  -5  -1  166.18   25.18
  11  -5  -1  174.70   28.62
  11  -5  -1  124.13   25.55
 -11   5   1  147.82   16.46
 -11   5   1   65.26   49.93
  10  -5  -1   41.39   14.40
  10  -5  -1   35.21   12.04
  10  -5  -1   47.76   15.11
 -10   5   1   31.82   38.71
 -10   5   1   37.57    6.89
 -10   5   1   31.49   10.07
 -10   5   1    4.95   24.09
   9  -5  -1  211.37   32.72
   9  -5  -1  239.17   31.76
   9  -5  -1  268.23   26.66
  -9   5   1  187.73   42.72
  -9   5   1  255.19   57.07
  -9   5   1  257.37   23.28
  -9   5   1  218.25   17.83
   8  -5  -1    3.68    8.17
   8  -5  -1   13.67    7.91
   8  -5  -1   11.28    8.99
   8  -5  -1   23.49    4.41
  -8   5   1    5.09   25.60
  -8   5   1    9.98    6.84
  -8   5   1   22.51   20.11
  -8   5   1   12.26    4.04
   7  -5  -1  169.04   26.83
   7  -5  -1  163.93   13.19
   7  -5  -1  167.69   21.68
   7  -5  -1  218.30   27.64
  -7   5   1  169.18   18.75
  -7   5   1  164.95   13.66
  -7   5   1  155.95   17.42
  -7   5   1  198.45   35.05
  -7   5   1  215.35   46.87
   6  -5  -1   17.89    7.06
   6  -5  -1   19.13    9.93
   6  -5  -1   30.14   10.73
   6  -5  -1   23.90    4.65
  -6   5   1   32.70   20.53
  -6   5   1   10.04    6.42
  -6   5   1   14.93   15.93
  -6   5   1   29.56   10.85
  -6   5   1   17.34    4.49
  -6   5   1   29.68    8.25
   5  -5  -1  912.84   58.73
   5  -5  -1  861.02   64.20
   5  -5  -1  784.54   58.46
   5  -5  -1  878.70   61.80
   5  -5  -1  855.63   54.06
  -5   5   1  848.75   82.12
  -5   5   1  792.77   62.85
  -5   5   1  860.17   60.19
  -5   5   1  939.04   74.93
  -5   5   1 1021.50   60.12
  -5   5   1  871.21   54.39
   4  -5  -1   30.15   10.05
   4  -5  -1   28.15    4.90
   4  -5  -1   22.48    7.79
   4  -5  -1   18.53    6.58
   4  -5  -1   25.79    6.41
  -4   5   1   32.52   10.67
  -4   5   1   27.36    5.06
  -4   5   1   26.43    7.60
  -4   5   1   25.09   16.78
  -4   5   1   14.78    7.33
  -4   5   1   18.48   10.73
   3  -5  -1  371.47   23.83
   3  -5  -1  361.36   25.34
   3  -5  -1  360.08   31.49
   3  -5  -1  338.72   26.62
   3  -5  -1  337.14   28.77
  -3   5   1  352.76   23.84
  -3   5   1  306.54   35.09
  -3   5   1  311.04   27.19
  -3   5   1  362.20   44.52
  -3   5   1  351.35   27.23
  -3   5   1  361.17   31.22
   2  -5  -1  109.96   15.03
   2  -5  -1   97.12   16.87
   2  -5  -1   96.23    8.82
   2  -5  -1   93.64   12.95
  -2   5   1   85.81   23.17
  -2   5   1   99.20   14.20
  -2   5   1   80.26   12.41
  -2   5   1   82.82    8.49
  -2   5   1   94.76   16.70
  -2   5   1  103.48   20.76
   1  -5  -1 1125.47   73.61
   1  -5  -1 1148.58   72.03
  -1   5   1 1155.55   73.68
  -1   5   1 1189.90   76.91
  -1   5   1 1090.44   80.98
  -1   5   1 1192.34   89.79
   0  -5  -1   84.98    9.03
   0  -5  -1  101.69   10.58
   0   5   1   95.05   12.43
   0   5   1   76.04   10.63
   0   5   1  103.18   17.61
   0   5   1   76.02   13.76
   0   5   1   59.31   17.41
   0   5   1   88.23    8.45
   1   5   1 1494.57   95.94
   1   5   1 1549.83   93.66
   1   5   1 1447.49  102.02
   1   5   1 1327.79   89.07
   2   5   1    5.08    3.18
   2   5   1   10.76    3.83
   2   5   1    7.02    5.17
   2   5   1    5.07    5.23
   2   5   1   14.22    8.92
   2   5   1    4.82    3.06
   3   5   1  542.90   32.81
   3   5   1  439.60   38.78
   3   5   1  491.70   31.55
   3   5   1  489.96   31.86
   3   5   1  471.55   30.39
   3   5   1  478.90   35.08
   4   5   1   23.82    4.19
   4   5   1   19.88    6.98
   4   5   1   14.56    4.85
   4   5   1   14.22    3.37
   4   5   1   24.40    4.70
   5   5   1 1396.94   86.15
   6   5   1   58.24    4.97
   6   5   1   49.64    9.20
   6   5   1   49.17    4.50
   7   5   1  462.91   29.16
   7   5   1  465.43   28.62
   7   5   1  495.99   34.79
   7   5   1  478.35   35.33
   8   5   1    8.06    2.76
   8   5   1   11.01    5.56
   8   5   1    4.99    5.36
   9   5   1  302.92   26.74
   9   5   1  331.74   20.80
   9   5   1  319.52   22.27
   9   5   1  330.68   29.43
  10   5   1   22.61    8.23
  10   5   1   29.18    6.09
  10   5   1   33.28    6.82
  10   5   1   25.90    4.92
  10   5   1   34.89    9.85
  11   5   1  177.85   25.28
  11   5   1  164.74   14.45
  11   5   1  190.94   16.28
  11   5   1  240.66   21.32
  11   5   1  161.29   15.78
  10  -6  -1  176.49   30.69
  10  -6  -1  147.97   24.19
  10  -6  -1  159.83   27.80
 -10   6   1  177.60   14.91
 -10   6   1  176.50   19.77
 -10   6   1  183.73   64.75
   9  -6  -1    6.80    6.79
   9  -6  -1    0.67    8.33
   9  -6  -1    7.89    9.04
  -9   6   1    5.38    3.92
  -9   6   1    1.15   24.42
  -9   6   1    1.23   41.19
  -9   6   1    3.60    7.11
   8  -6  -1  230.84   24.09
   8  -6  -1  215.03   33.41
   8  -6  -1  235.44   31.33
  -8   6   1  213.31   44.06
  -8   6   1  248.62   23.59
  -8   6   1  309.62   62.91
  -8   6   1  209.44   17.49
   7  -6  -1    9.31    6.90
   7  -6  -1   15.09    9.28
   7  -6  -1    4.68    8.01
  -7   6   1    7.76    6.80
  -7   6   1   24.04   23.30
  -7   6   1    6.95    3.68
  -7   6   1  -19.60   14.27
   6  -6  -1  427.83   41.71
   6  -6  -1  440.90   39.63
   6  -6  -1  452.69   35.80
  -6   6   1  473.33   36.87
  -6   6   1  464.80   31.27
  -6   6   1  528.98   54.72
  -6   6   1  432.30   68.24
   5  -6  -1    9.32    7.91
   5  -6  -1   11.77    7.40
   5  -6  -1   12.15    5.64
  -5   6   1   13.57   12.24
  -5   6   1   23.19   17.76
  -5   6   1    8.73    3.53
  -5   6   1   15.06    6.99
   4  -6  -1  847.67   65.13
   4  -6  -1  826.93   59.11
   4  -6  -1  919.35   62.90
   4  -6  -1  897.66   57.66
  -4   6   1  772.55   63.47
  -4   6   1  889.85   61.03
  -4   6   1  887.52   74.05
  -4   6   1  898.43   55.33
  -4   6   1  896.32   60.04
  -4   6   1  953.91   87.22
   3  -6  -1   12.90    5.36
   3  -6  -1    7.27    3.58
   3  -6  -1    6.13    5.92
   3  -6  -1    0.94    6.54
  -3   6   1    1.72    2.47
  -3   6   1    4.71    4.98
  -3   6   1    1.27   15.59
  -3   6   1    4.93    6.31
  -3   6   1    1.55    7.90
  -3   6   1    1.25    3.65
   2  -6  -1 1004.17   66.98
   2  -6  -1 1035.81   63.80
   2  -6  -1 1095.78   69.99
   2  -6  -1 1109.62   73.94
  -2   6   1 1050.09   68.08
  -2   6   1 1059.60   79.55
  -2   6   1 1150.45   90.95
  -2   6   1 1012.10   68.76
  -2   6   1  959.69   71.62
  -2   6   1  946.69   64.02
   1  -6  -1    8.55    5.69
   1  -6  -1   17.71    3.35
   1  -6  -1   21.96    6.57
  -1   6   1   13.15    4.28
  -1   6   1   23.05    8.99
  -1   6   1   27.68    7.75
  -1   6   1   27.58    6.84
  -1   6   1   20.17   16.10
  -1   6   1    7.98    9.03
   0  -6  -1  799.25   49.59
   0  -6  -1  769.91   50.79
   0   6   1  715.10   50.13
   0   6   1  760.48   48.48
   0   6   1  768.48   67.45
   0   6   1  770.52   54.89
   0   6   1  749.99   59.20
   0   6   1  704.92   50.69
  -1  -6  -1   38.20    7.45
  -1  -6  -1   39.41    6.92
   1   6   1   30.63   10.99
   1   6   1   32.08    7.07
   1   6   1   68.77   19.47
   1   6   1   39.10    6.82
   1   6   1   27.31    9.32
   1   6   1   29.51    6.91
   2   6   1 1251.10   75.79
   2   6   1 1221.10   76.05
   2   6   1 1145.98   89.11
   2   6   1 1159.13   82.09
   2   6   1 1196.99   76.44
   2   6   1 1322.81   81.87
   3   6   1    0.94    3.07
   3   6   1    2.44    1.48
   3   6   1    9.89    4.05
   3   6   1    3.71    5.60
   3   6   1    0.36    2.67
   3   6   1    1.02    4.47
   3   6   1   13.79    9.52
   4   6   1  906.54   59.04
   4   6   1 1002.94   60.51
   4   6   1  895.27   66.42
   4   6   1  964.83   63.13
   4   6   1  967.26   58.08
   4   6   1  936.63   58.96
   5   6   1   21.36    6.21
   5   6   1   37.01    8.09
   5   6   1   40.51    5.97
   5   6   1   32.18    5.51
   5   6   1   29.60    5.92
   5   6   1   47.41    7.56
   6   6   1  357.86   23.93
   6   6   1  372.54   27.13
   6   6   1  358.41   24.28
   7   6   1   35.79    8.87
   7   6   1   24.70    7.48
   7   6   1   29.04    4.21
   7   6   1   23.64    4.55
   8   6   1  267.77   22.83
   8   6   1  247.91   20.66
   8   6   1  258.78   16.83
   8   6   1  251.30   18.01
   8   6   1  245.28   23.18
   9   6   1    5.35    3.24
   9   6   1    2.18    1.87
   9   6   1   -3.01    2.68
   9   6   1    2.32    4.41
   9   6   1    4.05    5.29
  10   6   1  153.63   15.56
  10   6   1  174.07   12.19
  10   6   1  184.49   23.65
  10   6   1  163.97   18.47
  10   6   1  152.05   13.35
  10  -7  -1   35.30   11.68
  10  -7  -1   31.02   13.46
  10  -7  -1   29.36   14.10
 -10   7   1   32.60   10.39
 -10   7   1  -89.27   48.87
 -10   7   1   -6.22   39.29
 -10   7   1   20.61    5.21
   9  -7  -1  136.50   27.71
   9  -7  -1  126.68   21.37
   9  -7  -1  142.18   25.63
  -9   7   1   35.04   37.18
  -9   7   1  117.57   12.06
  -9   7   1  148.55   51.77
  -9   7   1  131.95   19.60
   8  -7  -1   39.75   12.94
   8  -7  -1   32.30   14.81
   8  -7  -1   30.69   10.27
  -8   7   1   39.31   44.38
  -8   7   1   35.88    6.53
  -8   7   1   30.82   10.11
  -8   7   1   14.81   22.01
   7  -7  -1  482.99   48.01
   7  -7  -1  548.75   41.47
   7  -7  -1  506.76   45.71
  -7   7   1  575.58   66.02
  -7   7   1  513.28   41.74
  -7   7   1  513.58   35.31
  -7   7   1  435.84   78.43
   6  -7  -1   46.59   15.06
   6  -7  -1   52.70   14.56
   6  -7  -1   61.22   12.21
  -6   7   1   54.23    8.50
  -6   7   1   52.83   36.52
  -6   7   1   48.16   21.63
  -6   7   1   50.82   12.65
   5  -7  -1  324.24   31.25
   5  -7  -1  320.21   26.03
   5  -7  -1  329.40   34.53
  -5   7   1  324.91   28.38
  -5   7   1  391.40   47.79
  -5   7   1  253.64   22.62
  -5   7   1  331.99   59.97
   4  -7  -1   95.13   20.58
   4  -7  -1   96.42   13.20
   4  -7  -1  128.94   20.26
  -4   7   1  123.22   39.37
  -4   7   1  102.84   27.16
  -4   7   1   69.55   14.05
  -4   7   1  106.58   10.74
   3  -7  -1  513.87   45.48
   3  -7  -1  464.10   38.03
   3  -7  -1  554.55   42.15
   3  -7  -1  500.05   35.52
  -3   7   1  522.08   40.14
  -3   7   1  506.79   51.53
  -3   7   1  530.72   65.10
  -3   7   1  584.45   36.25
   2  -7  -1  145.58   12.54
   2  -7  -1  177.61   18.88
   2  -7  -1  164.08   16.08
  -2   7   1  151.14   17.00
  -2   7   1  157.57   35.77
  -2   7   1  152.58   17.14
  -2   7   1  151.15   13.62
  -2   7   1  163.91   20.21
  -2   7   1  135.62   27.97
   1  -7  -1  695.14   39.81
   1  -7  -1  744.52   48.11
   1  -7  -1  602.73   44.30
  -1   7   1  593.59   49.68
  -1   7   1  650.01   46.12
  -1   7   1  615.26   42.75
  -1   7   1  632.10   46.70
  -1   7   1  701.77   68.38
  -1   7   1  579.27   55.60
   0  -7  -1   31.06    7.90
   0  -7  -1   40.37    8.32
   0   7   1   18.11    5.36
   0   7   1   35.23   19.88
   0   7   1   14.20   11.91
   0   7   1   28.39    7.66
   0   7   1   36.75    8.48
   0   7   1   14.26    8.12
  -1  -7  -1  804.17   49.59
  -1  -7  -1  801.80   50.54
   1   7   1  634.09   66.27
   1   7   1  826.95   61.51
   1   7   1  771.09   51.50
   1   7   1  754.59   51.94
   1   7   1  686.81   55.39
   1   7   1  748.25   49.66
  -2  -7  -1   56.63    6.19
  -2  -7  -1   40.49    5.73
   2   7   1   63.51   13.65
   2   7   1   46.65    9.48
   2   7   1   70.62   21.30
   2   7   1   50.85    8.82
   2   7   1   54.34    9.50
   2   7   1   53.13   13.43
   3   7   1  659.30   45.65
   3   7   1  678.67   51.91
   3   7   1  573.96   57.80
   3   7   1  741.49   52.11
   3   7   1  715.38   46.51
   3   7   1  721.05   46.22
   4   7   1    6.03    4.14
   4   7   1    5.25    2.15
   4   7   1    7.63    7.33
   4   7   1   16.74    5.10
   4   7   1    9.97   12.12
   4   7   1    6.59    3.95
   4   7   1   16.12    6.90
   5   7   1  319.76   29.65
   5   7   1  278.28   21.66
   5   7   1  299.40   26.85
   5   7   1  279.82   21.69
   5   7   1  280.69   22.94
   5   7   1  308.90   26.28
   5   7   1  284.64   20.66
   6   7   1   55.36   10.03
   6   7   1   73.87    9.68
   6   7   1   74.91    8.04
   6   7   1   72.57    9.89
   7   7   1  436.49   29.90
   7   7   1  388.80   25.92
   7   7   1  362.24   26.38
   7   7   1  364.62   28.72
   8   7   1    1.90    4.74
   8   7   1    6.98    4.45
   8   7   1    2.89    4.80
   8   7   1    8.33    2.96
   8   7   1    2.56    2.92
   9   7   1  144.23   15.06
   9   7   1  130.41   12.22
   9   7   1  162.45   20.55
   9   7   1  183.48   17.64
  10   7   1    2.97    6.31
  10   7   1   15.16    6.49
  10   7   1   13.51    4.12
  10   7   1   15.17    3.47
  10   7   1   22.79    6.37
   9  -8  -1    0.62    9.24
   9  -8  -1   12.66    8.26
   9  -8  -1   16.15   12.74
  -9   8   1   -0.65   29.58
  -9   8   1   16.39    4.76
  -9   8   1    3.20    7.85
  -9   8   1   13.30   50.80
   8  -8  -1  161.65   27.95
   8  -8  -1  178.31   32.25
   8  -8  -1  211.55   23.04
  -8   8   1   88.46   59.13
  -8   8   1  188.02   17.13
  -8   8   1  193.11   51.01
  -8   8   1  213.65   23.56
   7  -8  -1   40.56   14.29
   7  -8  -1   54.71   17.79
   7  -8  -1   31.13    9.59
  -7   8   1   74.37   35.52
  -7   8   1   45.87   36.09
  -7   8   1   55.34    9.30
  -7   8   1   61.52   14.76
   6  -8  -1  382.44   30.44
   6  -8  -1  340.88   35.58
   6  -8  -1  347.50   39.27
  -6   8   1  372.85   68.00
  -6   8   1  340.15   26.64
  -6   8   1  316.56   52.67
  -6   8   1  375.30   33.40
   5  -8  -1   -4.06    3.29
   5  -8  -1   -8.36    6.27
   5  -8  -1   16.02   10.35
  -5   8   1   36.98   23.84
  -5   8   1   -2.33    4.76
  -5   8   1    5.53    4.06
  -5   8   1    0.05   22.31
   4  -8  -1  291.94   29.61
   4  -8  -1  264.20   22.49
   4  -8  -1  265.06   31.55
  -4   8   1  372.27   63.59
  -4   8   1  294.24   22.61
  -4   8   1  232.32   42.67
  -4   8   1  292.54   27.56
   3  -8  -1   42.88   12.75
   3  -8  -1   53.36    8.21
  -3   8   1   50.21    8.74
  -3   8   1   30.91   10.09
  -3   8   1   39.42   22.11
  -3   8   1   34.18   30.69
   2  -8  -1  888.73   61.38
   2  -8  -1  882.44   56.02
   2  -8  -1  890.75   64.25
  -2   8   1  992.28   93.15
  -2   8   1  854.53   62.75
  -2   8   1  945.59   77.12
  -2   8   1  914.51   58.76
   1  -8  -1  135.09   15.01
   1  -8  -1  150.84   20.62
   1  -8  -1  140.93    9.77
   1  -8  -1  138.22    9.83
  -1   8   1  153.87   36.10
  -1   8   1  154.47   28.57
  -1   8   1  162.53   17.12
  -1   8   1  143.69   14.20
   0  -8  -1  656.33   45.51
   0  -8  -1  719.31   48.22
   0   8   1  580.50   47.09
   0   8   1  737.21   72.32
   0   8   1  636.12   58.29
   0   8   1  675.01   45.20
   0   8   1  661.60   47.80
  -1  -8  -1   94.17   13.06
  -1  -8  -1   69.20   10.57
   1   8   1   77.73   11.39
   1   8   1   88.97   14.07
   1   8   1   81.89   26.62
   1   8   1   90.00   13.82
   1   8   1   61.39   18.86
   1   8   1   74.93   18.19
  -2  -8  -1  780.41   49.61
  -2  -8  -1  828.82   49.91
   2   8   1  868.17   65.26
   2   8   1  817.22   55.04
   2   8   1  703.46   54.20
   2   8   1  760.90   59.75
   2   8   1  823.77   53.82
   2   8   1  930.39   76.70
   3   8   1   -3.54   10.21
   3   8   1    6.28    4.85
   3   8   1   17.27    5.81
   3   8   1    5.12    5.00
   3   8   1    0.74    5.31
   3   8   1   -8.46   15.69
   4   8   1  365.42   42.74
   4   8   1  385.58   33.73
   4   8   1  358.92   28.48
   4   8   1  380.99   28.86
   4   8   1  370.02   35.28
   4   8   1  400.85   29.33
   5   8   1    2.78    5.55
   5   8   1    1.60    3.86
   5   8   1    0.63    3.66
   5   8   1   -1.10    3.44
   5   8   1    9.69   14.78
   5   8   1  -11.25    9.03
   5   8   1    0.90    1.76
   6   8   1  325.23   22.49
   6   8   1  318.94   22.57
   6   8   1  341.92   24.76
   6   8   1  334.19   26.69
   6   8   1  302.19   23.08
   6   8   1  376.46   25.58
   6   8   1  320.22   30.74
   7   8   1    0.09    5.18
   7   8   1    2.17    3.63
   7   8   1   -4.18    2.42
   7   8   1   -3.81    3.37
   7   8   1    5.57    3.85
   8   8   1  178.93   17.57
   8   8   1  161.33   20.21
   8   8   1  130.28   15.48
   8   8   1  169.44   13.48
   8   8   1  149.74   13.86
   8   8   1  199.53   19.80
   9   8   1   10.20    3.72
   9   8   1    2.06    4.86
   9   8   1   -1.27    4.88
   9   8   1   11.58    6.16
   9   8   1    0.12    5.32
   9   8   1    6.96    3.90
   8  -9  -1   23.09   12.51
   8  -9  -1   20.91   15.37
   8  -9  -1   29.57    9.44
  -8   9   1   32.86   11.14
  -8   9   1   54.71   43.64
  -8   9   1  -13.95   46.06
  -8   9   1   37.91    7.60
   7  -9  -1  216.05   33.99
   7  -9  -1  157.42   22.89
   7  -9  -1  174.83   32.40
  -7   9   1  209.57   18.40
  -7   9   1  229.52   67.78
  -7   9   1  186.72   26.44
  -7   9   1  155.60   52.13
   6  -9  -1   45.11   10.39
   6  -9  -1   19.91   11.73
  -6   9   1   38.38   12.08
  -6   9   1   27.54    7.51
  -6   9   1   -4.89   42.50
  -6   9   1   24.00   29.07
   5  -9  -1  281.04   37.74
   5  -9  -1  258.67   23.29
  -5   9   1  202.51   55.69
  -5   9   1  288.96   23.05
  -5   9   1  253.75   47.13
  -5   9   1  243.59   27.21
   4  -9  -1    3.81    8.55
   4  -9  -1    4.36    3.57
  -4   9   1    4.31   24.19
  -4   9   1  -15.50   35.71
  -4   9   1    9.20    5.12
  -4   9   1    7.42    7.88
   3  -9  -1  386.31   37.94
   3  -9  -1  423.31   30.40
  -3   9   1  459.19   38.22
  -3   9   1  445.46   74.04
  -3   9   1  444.83   54.47
  -3   9   1  461.97   32.84
   2  -9  -1   10.02    3.14
   2  -9  -1    5.91    8.57
   2  -9  -1    6.09    2.71
  -2   9   1   20.68   20.37
  -2   9   1  -16.93   21.08
  -2   9   1    7.89    7.33
  -2   9   1    8.47    4.95
   1  -9  -1  587.45   45.10
   1  -9  -1  550.86   42.05
  -1   9   1  601.73   72.50
  -1   9   1  594.82   45.19
  -1   9   1  559.49   40.37
  -1   9   1  578.81   58.83
   0  -9  -1   55.92   12.52
   0  -9  -1   75.37   12.20
   0   9   1   79.21   32.91
   0   9   1   31.42    8.63
   0   9   1   45.76   21.38
   0   9   1   88.43   15.18
  -1  -9  -1  434.73   30.70
  -1  -9  -1  388.21   31.20
   1   9   1  408.47   33.73
   1   9   1  385.36   44.33
   1   9   1  407.04   31.17
   1   9   1  430.59   58.06
  -2  -9  -1   26.68    4.45
   2   9   1   10.69    5.37
   2   9   1   23.02    7.79
   2   9   1   38.51   24.42
   3   9   1  374.88   31.97
   3   9   1  448.90   32.26
   3   9   1  425.63   54.70
   4   9   1   13.17    6.32
   4   9   1    9.25    6.09
   4   9   1   12.49   13.59
   4   9   1   33.48    8.02
   4   9   1   22.92   21.95
   5   9   1  410.05   38.60
   5   9   1  375.56   29.42
   5   9   1  366.51   29.06
   5   9   1  344.62   28.35
   5   9   1  333.58   43.58
   6   9   1   35.36   13.66
   6   9   1   10.37    5.78
   6   9   1   17.73   11.28
   6   9   1   20.96    6.46
   6   9   1   18.57    6.29
   7   9   1  164.29   16.44
   7   9   1  190.41   16.60
   7   9   1  193.74   19.01
   8   9   1    7.89    6.23
   8   9   1   22.57    5.95
   8   9   1   22.59    6.21
   8   9   1   11.45    5.10
   6 -10  -1  175.93   29.82
   6 -10  -1  160.63   17.54
  -6  10   1  101.90   59.61
  -6  10   1  161.67   16.68
  -6  10   1  142.42   23.47
  -6  10   1   54.85   51.37
   5 -10  -1   58.57   16.36
   5 -10  -1   39.54    9.06
  -5  10   1   44.27    9.55
  -5  10   1  -38.87   51.51
  -5  10   1   29.11   11.79
   4 -10  -1  244.86   19.66
   4 -10  -1  269.50   35.16
  -4  10   1  201.94   20.15
  -4  10   1  203.08   29.27
  -4  10   1  153.40   58.20
   3 -10  -1    1.36    2.18
   3 -10  -1    6.70    9.43
   3 -10  -1    2.94    3.06
  -3  10   1   -6.23   37.09
  -3  10   1   -0.27    6.51
  -3  10   1    0.69    4.29
   2 -10  -1  291.97   29.33
  -2  10   1  301.12   63.79
  -2  10   1  289.20   28.46
  -2  10   1  249.58   23.40
   1 -10  -1    0.51    5.57
   1 -10  -1   10.12    8.25
  -1  10   1   18.83    6.59
  -1  10   1  -29.99   20.45
  -1  10   1  -15.55   32.25
  -1  10   1   12.65    8.34
   0 -10  -1  348.87   30.42
   0 -10  -1  311.38   27.75
   0  10   1  273.01   59.04
   0  10   1  352.31   28.20
   0  10   1  324.47   30.99
   0  10   1  399.03   48.15
  -1 -10  -1   31.52    8.09
  -1 -10  -1   13.56    5.66
   1  10   1   -0.16   29.18
   1  10   1   18.91    8.47
   1  10   1   22.04   19.29
   1  10   1   30.71    7.99
   2  10   1  187.92   19.15
   2  10   1  198.62   21.94
   2  10   1  215.56   37.10
   2  10   1  226.06   48.22
   3  10   1   24.53    7.90
   3  10   1   32.40   17.36
   3  10   1   19.63   29.23
   3  10   1   13.90    7.00
   4  10   1  258.96   24.97
   4  10   1  265.11   49.67
   4  10   1  304.59   26.06
   4  10   1  309.10   39.72
   5  10   1   44.53   20.18
   5  10   1   32.45    9.09
   5  10   1   32.94    9.07
   5  10   1   59.65   26.27
   6  10   1  171.19   26.30
   6  10   1  214.60   20.11
   6  10   1  183.33   20.11
   6  10   1  240.97   31.18
   4 -11  -1   18.85   12.60
  -4  11   1   26.78    7.93
  -4  11   1   17.26   11.26
  -4  11   1   79.14   39.89
  -4  11   1    4.39   56.78
   3 -11  -1  188.46   28.70
  -3  11   1  148.62   25.61
  -3  11   1  204.72   68.82
  -3  11   1  174.13   18.60
  -3  11   1  238.56   52.68
   2 -11  -1    1.58    8.20
  -2  11   1    7.62   31.54
  -2  11   1    8.75    5.98
  -2  11   1   -1.38    6.45
  -2  11   1   -3.16   43.15
   1 -11  -1  161.79   23.08
  -1  11   1  138.42   19.06
  -1  11   1  159.78   52.58
  -1  11   1  230.30   44.73
  -1  11   1  165.01   25.58
   0 -11  -1    1.70    5.37
   0 -11  -1    4.84    7.35
   0  11   1    2.69    5.16
   0  11   1   16.94    9.51
   0  11   1   -2.62   25.49
   0  11   1   13.13   39.46
  -1 -11  -1  196.91   18.17
   1  11   1  126.74   50.37
   1  11   1  175.39   21.93
   1  11   1  173.09   37.43
   1  11   1  147.81   23.85
   2  11   1   11.39    7.18
   2  11   1   40.85   39.35
   2  11   1  -26.51   21.88
   2  11   1   12.08    7.89
   3  11   1  217.55   21.78
   3  11   1  177.24   22.49
   3  11   1  154.63   48.18
   4  11   1   11.43   37.16
   4  11   1   20.72    7.60
   4  11   1   14.84    8.21
   4  10  -2  178.71   21.95
   4  10  -2  156.60   23.64
   4  10  -2  150.40   51.07
   3  10  -2   -2.16    4.87
   3  10  -2   12.50   43.68
   3  10  -2    6.30    7.49
   2  10  -2  138.73   22.12
   2  10  -2  128.56   36.00
   2  10  -2  133.07   18.03
   2  10  -2   46.59   46.36
  -2 -10   2   89.93   13.64
   1  10  -2   36.24   26.65
   1  10  -2    9.35    8.00
   1  10  -2    3.75   42.77
   1  10  -2    0.33    4.98
  -1 -10   2   -2.85    3.62
  -1 -10   2    8.60    6.73
   0  10  -2  242.16   65.46
   0  10  -2  217.79   43.73
   0  10  -2  195.55   21.00
   0  10  -2  250.98   27.24
   0 -10   2  238.07   25.34
  -1  10  -2   30.73   27.71
  -1  10  -2    9.55    6.74
  -1  10  -2   12.73    9.96
  -1  10  -2   18.06   44.64
   1 -10   2    8.58    9.44
  -2  10  -2  224.55   50.89
  -2  10  -2  239.26   32.18
  -2  10  -2  208.59   21.18
  -2  10  -2  219.90   66.40
   2 -10   2  232.58   32.76
  -3  10  -2   -0.72   36.41
  -3  10  -2   10.24    9.64
  -3  10  -2  -28.35   54.19
  -3  10  -2    4.11    5.01
   3 -10   2   19.58   11.56
   3 -10   2   -0.69    1.85
   3 -10   2    3.18    3.05
  -4  10  -2  158.30   26.61
  -4  10  -2   75.10   37.83
  -4  10  -2  142.44   18.34
  -4  10  -2  124.93   58.24
   4 -10   2  140.63   31.83
   4 -10   2  134.76   14.77
   4 -10   2  142.76   26.28
   6   9  -2   12.49   31.93
   6   9  -2   30.63    9.16
   6   9  -2   16.28    8.80
   5   9  -2  187.60   46.84
   5   9  -2  186.96   38.48
   5   9  -2  192.27   20.77
   4   9  -2   -1.34   23.24
   4   9  -2   34.29   34.10
   4   9  -2    1.57    6.38
   3   9  -2  249.47   41.21
   3   9  -2  180.28   19.28
   3   9  -2  188.70   21.33
   3   9  -2  157.97   48.22
   2   9  -2    9.14    5.79
   2   9  -2   -0.58    5.46
   2   9  -2   -9.00   32.45
   2   9  -2   -6.93   19.13
  -2  -9   2    1.88    5.36
  -2  -9   2    0.13    4.40
   1   9  -2  242.72   40.32
   1   9  -2  250.11   25.40
   1   9  -2  199.17   20.94
   1   9  -2  312.84   61.74
  -1  -9   2  229.23   22.19
  -1  -9   2  232.45   23.17
   0   9  -2   35.11   22.12
   0   9  -2   52.66   13.96
   0   9  -2   47.65   38.50
   0   9  -2   66.36   11.88
   0  -9   2   43.00    4.93
   0  -9   2   52.70   12.99
   0  -9   2   53.69   12.35
  -1   9  -2  295.66   26.42
  -1   9  -2  342.55   32.36
  -1   9  -2  293.75   68.34
   1  -9   2  348.80   32.11
  -2   9  -2   37.93   12.33
  -2   9  -2   24.18    7.51
  -2   9  -2   16.03   37.28
   2  -9   2   35.22    7.43
   2  -9   2   42.58   12.37
  -3   9  -2  127.83   60.12
  -3   9  -2  227.33   21.07
  -3   9  -2  229.24   31.61
  -3   9  -2  258.59   58.62
   3  -9   2  198.46   35.70
   3  -9   2  245.05   20.12
   3  -9   2  261.98   34.41
  -4   9  -2    6.17    4.69
  -4   9  -2   -0.56   29.60
  -4   9  -2  -90.41   45.50
  -4   9  -2    2.40    7.64
   4  -9   2    3.89    4.93
   4  -9   2    2.46    8.98
   4  -9   2   -3.00    9.10
  -5   9  -2  126.02   45.60
  -5   9  -2  136.31   17.24
  -5   9  -2  161.60   25.27
  -5   9  -2  285.16   75.47
   5  -9   2  149.15   26.05
   5  -9   2  178.03   18.13
   5  -9   2  150.88   31.98
  -6   9  -2  -38.45   56.18
  -6   9  -2   14.78   10.52
  -6   9  -2   18.59    6.02
  -6   9  -2  -20.36   37.90
   6  -9   2   19.98   12.93
   6  -9   2    7.64    6.03
   6  -9   2    3.25   11.49
   8   8  -2   80.94   14.57
   8   8  -2  161.30   16.77
   8   8  -2  157.87   13.96
   8   8  -2  117.55   14.41
   7   8  -2    5.96    6.72
   7   8  -2   -9.50   20.74
   7   8  -2    0.90    4.49
   7   8  -2    7.05    6.70
   7   8  -2   10.38   18.68
   6   8  -2  246.42   40.98
   6   8  -2  250.95   23.79
   6   8  -2  246.82   24.43
   6   8  -2  243.81   37.40
   5   8  -2    8.90   18.57
   5   8  -2   18.41    5.01
   5   8  -2   37.66   10.04
   5   8  -2   18.61    6.79
   4   8  -2  233.05   22.07
   4   8  -2  206.95   22.56
   3   8  -2   19.36    8.77
   3   8  -2    5.56    6.16
  -3  -8   2    8.09   15.14
   2   8  -2  538.81   40.00
  -2  -8   2  485.79   51.98
  -2  -8   2  467.26   30.43
  -2  -8   2  490.90   35.68
   1   8  -2   11.95   14.90
   1   8  -2   28.17    9.78
   1   8  -2   24.80    7.40
  -1  -8   2   26.44    7.65
  -1  -8   2   23.30    8.95
  -1  -8   2   31.95    4.59
   0   8  -2  565.95   43.06
   0   8  -2  578.33   38.92
   0   8  -2  521.82   55.26
   0  -8   2  492.88   39.10
   0  -8   2  517.12   34.57
   0  -8   2  496.65   40.99
  -1   8  -2   40.85   11.69
  -1   8  -2   35.92    8.57
  -1   8  -2   17.16   18.46
   1  -8   2   34.23    9.02
   1  -8   2   36.91    7.22
   1  -8   2   28.30   10.39
   1  -8   2   38.97   14.97
  -2   8  -2  343.68   67.98
  -2   8  -2  342.03   30.60
  -2   8  -2  287.29   25.04
  -2   8  -2  285.33   40.10
   2  -8   2  323.94   31.41
   2  -8   2  328.66   36.64
   2  -8   2  325.79   24.01
  -3   8  -2   22.29   10.09
  -3   8  -2   17.82   18.63
  -3   8  -2   26.07    7.00
  -3   8  -2   35.28   38.24
   3  -8   2   18.40    5.79
   3  -8   2   31.41   14.18
   3  -8   2   42.05   13.30
  -4   8  -2  226.23   25.71
  -4   8  -2  283.06   47.98
  -4   8  -2  254.71   65.51
  -4   8  -2  205.08   19.21
   4  -8   2  209.56   19.76
   4  -8   2  265.18   32.95
   4  -8   2  219.04   30.85
  -5   8  -2   -6.24   38.45
  -5   8  -2  -12.95   25.90
  -5   8  -2    4.11    7.80
  -5   8  -2    1.75    3.89
   5  -8   2   -2.39    7.16
   5  -8   2   -5.46    7.26
  -6   8  -2  317.06   57.56
  -6   8  -2  308.00   75.15
  -6   8  -2  252.86   32.95
  -6   8  -2  241.93   20.34
   6  -8   2  207.51   32.51
   6  -8   2  231.89   39.30
  -7   8  -2   32.31   32.95
  -7   8  -2   72.70   57.33
  -7   8  -2    6.06    8.21
  -7   8  -2   19.69    5.56
   7  -8   2   11.22   10.98
   7  -8   2   10.56   12.73
   7  -8   2   14.61    7.92
  -8   8  -2  151.29   25.90
  -8   8  -2  115.79   72.11
  -8   8  -2  169.36   15.16
   8  -8   2  149.34   31.76
   8  -8   2  178.66   30.31
   8  -8   2  142.54   22.56
   9   7  -2  121.44   17.83
   9   7  -2  125.76   10.31
   9   7  -2  106.79   16.31
   9   7  -2  135.64   10.67
   8   7  -2   18.99    5.64
   8   7  -2   17.44    7.52
   8   7  -2   33.21    7.01
   8   7  -2   25.42    8.64
   8   7  -2   24.87    5.85
   7   7  -2  237.95   22.03
   7   7  -2  263.51   22.93
   7   7  -2  232.48   21.13
   7   7  -2  281.53   33.86
   7   7  -2  229.10   19.31
   6   7  -2   50.93    9.18
   6   7  -2   68.99   10.81
   6   7  -2   73.45   13.34
   6   7  -2   86.74   13.85
   6   7  -2   49.13   19.07
  -6  -7   2   42.47   14.73
   5   7  -2  222.95   35.32
   5   7  -2  249.87   22.57
   5   7  -2  229.20   22.74
   5   7  -2  242.81   19.94
   5   7  -2  250.22   19.93
  -5  -7   2  248.45   31.07
   4   7  -2   42.35    8.90
   4   7  -2   54.61   12.10
   4   7  -2   31.72    6.17
   4   7  -2   40.72    9.90
  -4  -7   2   52.17   16.93
   3   7  -2  337.26   26.64
   3   7  -2  338.08   30.27
   3   7  -2  339.86   28.33
  -3  -7   2  305.10   22.88
  -3  -7   2  362.63   39.84
  -3  -7   2  349.51   22.26
   2   7  -2   55.66   18.06
   2   7  -2   74.88   13.77
   2   7  -2   53.80   13.64
   2   7  -2   62.95   11.23
  -2  -7   2   60.52   10.11
  -2  -7   2  100.33   24.84
  -2  -7   2   68.20   10.61
  -2  -7   2   57.91    6.56
   1   7  -2  531.79   38.79
   1   7  -2  441.48   36.18
   1   7  -2  450.93   39.58
   1   7  -2  507.80   48.23
  -1  -7   2  499.92   31.91
  -1  -7   2  489.04   50.36
  -1  -7   2  477.06   36.01
  -1  -7   2  504.88   37.25
   0   7  -2   25.53    6.47
   0   7  -2   39.99   11.51
   0   7  -2   26.73    8.96
   0   7  -2   11.56   13.30
   0  -7   2   28.77    6.04
   0  -7   2   35.15   10.30
   0  -7   2   69.92   21.42
   0  -7   2   31.89   12.16
   0  -7   2   23.63    7.27
  -1   7  -2  229.55   35.12
  -1   7  -2  175.51   19.34
  -1   7  -2  185.88   16.71
   1  -7   2  189.00   29.08
   1  -7   2  171.20   18.20
   1  -7   2  170.82   15.33
   1  -7   2  161.85   31.90
   1  -7   2  208.46   21.85
  -2   7  -2   22.44   15.71
  -2   7  -2    9.11    4.57
  -2   7  -2    5.90    6.76
   2  -7   2    5.12    6.71
   2  -7   2   17.76    6.68
   2  -7   2   10.29    4.44
   2  -7   2    7.67    8.43
  -3   7  -2  326.69   24.23
  -3   7  -2  275.92   38.13
  -3   7  -2  332.63   29.85
  -3   7  -2  350.69   64.57
   3  -7   2  297.49   34.46
   3  -7   2  271.63   29.36
   3  -7   2  307.85   24.02
  -4   7  -2  115.56   13.69
  -4   7  -2  142.57   21.21
  -4   7  -2  143.08   47.29
  -4   7  -2   96.33   30.32
   4  -7   2   94.74   19.71
   4  -7   2  114.48   24.72
  -5   7  -2  328.79   64.84
  -5   7  -2  373.68   54.20
  -5   7  -2  386.98   26.78
  -5   7  -2  366.82   33.34
   5  -7   2  324.48   34.61
   5  -7   2  326.40   37.63
  -6   7  -2    7.20    6.50
  -6   7  -2   19.35   34.34
  -6   7  -2    9.56    4.01
  -6   7  -2    3.72   21.26
   6  -7   2   -3.39    7.38
   6  -7   2   -0.27   10.00
  -7   7  -2  239.53   25.85
  -7   7  -2  190.23   17.30
  -7   7  -2  216.12   48.02
  -7   7  -2  246.96   65.49
   7  -7   2  260.02   39.42
   7  -7   2  230.02   32.68
  -8   7  -2    0.27    6.70
  -8   7  -2   60.73   49.36
  -8   7  -2   30.83   36.45
  -8   7  -2    3.63    3.35
   8  -7   2    7.64    6.94
   8  -7   2    6.18    9.51
   8  -7   2    8.91   11.95
  -9   7  -2  139.70   66.49
  -9   7  -2   52.12    8.58
  -9   7  -2  133.36   21.65
   9  -7   2   78.06   23.18
   9  -7   2  133.28   21.61
   9  -7   2  112.71   24.03
  10   6  -2  185.86   17.73
  10   6  -2  141.26   22.00
  10   6  -2  135.41   13.90
   9   6  -2   28.94    9.90
   9   6  -2   21.52    1.98
   9   6  -2   21.95    7.37
   9   6  -2   33.56    6.78
   9   6  -2   19.91    2.01
   8   6  -2  279.36   25.18
   8   6  -2  266.73   19.48
   8   6  -2  247.31   22.30
   8   6  -2  287.30   23.71
   8   6  -2  267.92   20.13
   7   6  -2   31.53    8.17
   7   6  -2   55.38   15.94
   7   6  -2   52.88    9.21
   7   6  -2   51.95    8.15
   7   6  -2   52.19   10.74
  -7  -6   2   47.23   12.14
   6   6  -2  431.87   41.49
   6   6  -2  426.63   31.84
   6   6  -2  389.80   31.53
   6   6  -2  399.72   31.55
   6   6  -2  439.27   29.61
  -6  -6   2  438.91   37.36
   5   6  -2    4.41   12.87
   5   6  -2   15.37    6.12
   5   6  -2   30.59    7.79
   5   6  -2   38.66    6.99
   5   6  -2   36.06    8.69
  -5  -6   2   33.16   11.99
   4   6  -2  858.27   57.35
   4   6  -2  884.01   59.67
   4   6  -2  902.39   57.14
   4   6  -2  800.69   59.92
   4   6  -2  942.33   70.26
  -4  -6   2  994.69   68.95
  -4  -6   2  903.81   56.80
   3   6  -2   54.96   11.45
   3   6  -2   41.41   14.91
   3   6  -2   31.04    6.00
   3   6  -2   34.44    8.42
   3   6  -2   37.39    7.80
  -3  -6   2   29.34    4.92
  -3  -6   2   27.50    5.32
  -3  -6   2   26.71   11.70
  -3  -6   2   27.37    4.60
   2   6  -2  828.06   65.92
   2   6  -2  861.86   57.87
   2   6  -2  813.99   59.62
   2   6  -2  820.14   56.04
  -2  -6   2  900.40   55.81
  -2  -6   2  844.43   53.23
  -2  -6   2  893.13   67.81
  -2  -6   2  863.08   55.69
   1   6  -2    0.83    5.50
   1   6  -2   18.97    6.86
   1   6  -2    7.24    9.95
   1   6  -2   -0.84    3.52
  -1  -6   2    8.48   12.30
  -1  -6   2    9.74    3.46
  -1  -6   2    0.79    4.81
  -1  -6   2   15.15    6.40
   0   6  -2  267.52   24.35
   0   6  -2  301.70   28.54
   0   6  -2  335.50   35.45
   0   6  -2  351.80   27.20
   0  -6   2  310.54   25.42
   0  -6   2  300.89   30.05
   0  -6   2  318.27   36.25
   0  -6   2  293.94   21.95
   0  -6   2  303.21   26.42
  -1   6  -2   56.44   18.39
  -1   6  -2   76.31   15.65
  -1   6  -2   54.85   11.69
  -1   6  -2   69.90    9.77
  -1   6  -2   64.18   12.32
   1  -6   2   78.99   17.16
   1  -6   2   90.00   13.77
   1  -6   2   78.05    9.87
   1  -6   2   67.71   20.17
   1  -6   2   64.83   13.32
  -2   6  -2  553.61   43.89
  -2   6  -2  637.77   46.20
  -2   6  -2  672.94   41.57
  -2   6  -2  635.01   57.30
  -2   6  -2  507.15   47.18
   2  -6   2  599.48   44.50
   2  -6   2  640.24   51.39
   2  -6   2  563.41   56.24
   2  -6   2  640.18   41.30
   2  -6   2  749.60   48.75
  -3   6  -2    5.78    6.27
  -3   6  -2   17.49    5.20
  -3   6  -2   15.57   12.37
   3  -6   2   31.10    7.71
   3  -6   2   12.46    8.64
   3  -6   2    6.47    8.79
  -4   6  -2 1090.63  100.52
  -4   6  -2  919.13   66.63
  -4   6  -2  935.67   80.37
  -4   6  -2  993.45   60.65
   4  -6   2  868.50   71.99
   4  -6   2  998.36   69.40
  -5   6  -2   44.20   11.85
  -5   6  -2   24.61   20.90
  -5   6  -2   39.06    6.63
  -5   6  -2   18.57   23.75
   5  -6   2   33.19   11.98
   5  -6   2   48.65   16.12
  -6   6  -2  431.97   52.31
  -6   6  -2  353.80   24.20
  -6   6  -2  312.72   29.92
  -6   6  -2  353.55   67.94
   6  -6   2  279.24   36.23
   6  -6   2  319.47   32.97
  -7   6  -2    7.19   35.16
  -7   6  -2    6.98    3.44
  -7   6  -2    1.54    6.21
  -7   6  -2  -17.56   22.64
   7  -6   2   17.80   12.75
   7  -6   2    6.68    7.45
  -8   6  -2  188.24   25.56
  -8   6  -2  226.22   60.26
  -8   6  -2  164.29   14.17
  -8   6  -2  166.97   40.95
   8  -6   2  233.29   31.99
   8  -6   2  189.47   33.34
  -9   6  -2   18.00    3.65
  -9   6  -2   19.07    8.78
  -9   6  -2   -1.09   52.55
  -9   6  -2   12.42   24.60
   9  -6   2   25.03   12.78
   9  -6   2   30.92   10.02
   9  -6   2   12.23    9.51
 -10   6  -2   -1.05   37.37
 -10   6  -2  129.91   53.81
 -10   6  -2  123.38   19.31
  10  -6   2   96.76   19.31
  10  -6   2  144.98   26.57
  10  -6   2  120.66   28.62
  10   5  -2   31.76    9.04
  10   5  -2   26.37    6.22
  10   5  -2   41.28   11.77
   9   5  -2  307.34   28.91
   9   5  -2  281.13   25.17
   9   5  -2  332.21   22.74
   8   5  -2   28.52   10.68
   8   5  -2   29.69    7.90
   8   5  -2   28.23    4.96
   8   5  -2   21.38    4.34
   8   5  -2   27.74    9.06
  -8  -5   2    8.81    6.92
   7   5  -2  341.43   34.68
   7   5  -2  400.90   26.39
   7   5  -2  386.48   29.07
   7   5  -2  383.41   25.81
   7   5  -2  393.16   31.26
   7   5  -2  395.83   26.89
  -7  -5   2  347.07   30.75
   6   5  -2   31.36   13.22
   6   5  -2   26.87    7.12
   6   5  -2   22.32    5.12
   6   5  -2   22.25    7.56
   6   5  -2   27.05    6.55
  -6  -5   2   23.97    9.31
   5   5  -2  805.10   49.99
   5   5  -2  779.59   60.95
   5   5  -2  798.10   52.23
   5   5  -2  845.49   52.74
   5   5  -2  727.82   51.47
  -5  -5   2  759.91   57.28
   4   5  -2   55.26    8.56
   4   5  -2   84.40   17.65
   4   5  -2   68.63   10.87
   4   5  -2   61.35    9.84
   4   5  -2   68.17   11.50
  -4  -5   2   73.30   14.71
  -4  -5   2   71.33    9.65
   3   5  -2  667.26   46.79
   3   5  -2  700.86   45.35
   3   5  -2  718.60   55.50
   3   5  -2  694.88   44.85
   3   5  -2  648.24   47.41
  -3  -5   2  804.95   55.65
  -3  -5   2  669.43   42.63
  -3  -5   2  692.13   42.72
  -3  -5   2  680.08   44.46
   2   5  -2   11.01    3.77
   2   5  -2   21.87   10.22
   2   5  -2   15.15    6.76
   2   5  -2   21.55    5.36
   2   5  -2   19.23    6.56
  -2  -5   2   26.46    6.00
  -2  -5   2   17.61   10.38
  -2  -5   2   16.90    5.36
  -2  -5   2   16.48    4.24
   1   5  -2  917.58   67.06
   1   5  -2 1085.76   66.37
   1   5  -2 1088.12   74.75
   1   5  -2  960.17   64.40
  -1  -5   2 1071.04   69.72
  -1  -5   2  965.67   64.87
  -1  -5   2  993.55   64.75
  -1  -5   2 1027.87   75.15
  -1  -5   2  998.29   62.33
   0   5  -2   -0.03    3.34
   0   5  -2    3.95    5.98
   0   5  -2    1.99    3.17
   0   5  -2   -0.12    8.01
   0  -5   2    7.30    6.59
   0  -5   2    8.95    5.70
   0  -5   2    5.56    8.17
   0  -5   2   -0.92    2.45
   0  -5   2    2.22    3.88
  -1   5  -2  652.37   44.72
  -1   5  -2  652.89   45.64
  -1   5  -2  672.75   48.69
  -1   5  -2  617.88   53.68
   1  -5   2  637.58   55.76
   1  -5   2  660.58   41.95
   1  -5   2  583.16   45.31
   1  -5   2  651.84   44.74
   1  -5   2  663.92   49.85
  -2   5  -2    4.76    4.39
  -2   5  -2    4.84    5.97
  -2   5  -2   10.26    6.01
  -2   5  -2    8.02    3.24
  -2   5  -2    2.36    8.82
   2  -5   2   16.55    6.35
   2  -5   2    6.58    6.87
   2  -5   2    8.22   11.60
   2  -5   2    8.05    6.34
  -3   5  -2  790.50   53.48
  -3   5  -2  809.15   48.30
  -3   5  -2  710.98   51.57
  -3   5  -2  633.15   54.77
  -3   5  -2  770.07   64.25
   3  -5   2  768.31   58.43
   3  -5   2  773.70   52.32
   3  -5   2  755.59   54.41
   3  -5   2  811.45   65.86
  -4   5  -2   17.09    9.77
  -4   5  -2    4.24    2.73
  -4   5  -2   -8.93    8.49
  -4   5  -2    1.77    3.86
  -4   5  -2   -1.55    4.36
   4  -5   2   -3.19    4.88
   4  -5   2    7.58    9.03
   4  -5   2    8.30    5.50
  -5   5  -2  550.06   43.07
  -5   5  -2  565.69   54.77
  -5   5  -2  531.80   42.15
  -5   5  -2  597.95   37.24
  -5   5  -2  714.45   76.13
   5  -5   2  582.60   45.78
   5  -5   2  546.89   49.07
  -6   5  -2   66.12    7.80
  -6   5  -2   89.23   35.09
  -6   5  -2   28.25   17.80
  -6   5  -2   49.85   11.74
   6  -5   2   52.21   16.12
   6  -5   2   65.97   14.60
  -7   5  -2  176.29   35.98
  -7   5  -2  278.43   18.72
  -7   5  -2  276.46   25.48
  -7   5  -2  284.13   59.33
   7  -5   2  260.17   32.31
   7  -5   2  249.52   27.88
  -8   5  -2  -19.47   22.54
  -8   5  -2    5.33   35.13
  -8   5  -2   19.05    8.10
  -8   5  -2   15.22    3.46
   8  -5   2    6.53    8.86
   8  -5   2    2.34    9.27
  -9   5  -2  248.32   60.33
  -9   5  -2  235.39   23.77
  -9   5  -2  240.22   16.71
   9  -5   2  223.63   36.66
   9  -5   2  259.60   34.05
   9  -5   2  245.93   26.54
 -10   5  -2    8.94   45.14
 -10   5  -2   45.68   11.55
 -10   5  -2   32.28   32.13
  10  -5   2   49.86   14.15
  10  -5   2   42.43   12.50
  10  -5   2   40.68   17.07
  11   4  -2   40.69   10.06
  11   4  -2   11.46    9.71
  11   4  -2   12.73    6.46
  10   4  -2  223.21   20.97
  10   4  -2  235.38   25.02
  10   4  -2  213.89   17.78
   9   4  -2   26.26    8.08
   9   4  -2   39.25    6.82
   9   4  -2   30.65   10.19
  -9  -4   2   48.75    9.02
   8   4  -2  390.02   34.93
   8   4  -2  361.44   25.45
   8   4  -2  425.20   32.71
   8   4  -2  358.01   23.79
   8   4  -2  400.57   28.91
   8   4  -2  365.72   23.89
  -8  -4   2  368.57   30.01
   7   4  -2    4.85   10.60
   7   4  -2   28.91    8.25
   7   4  -2   24.35    6.93
   7   4  -2   36.39    5.53
   7   4  -2   25.17    4.40
  -7  -4   2   15.50    8.57
   6   4  -2  825.49   59.77
   6   4  -2  728.03   49.47
   6   4  -2  833.81   48.94
   6   4  -2  805.75   51.88
   6   4  -2  810.07   53.79
   6   4  -2  793.47   49.21
  -6  -4   2  735.32   55.00
   5   4  -2   22.90    9.99
   5   4  -2   23.94    6.67
   5   4  -2   28.41    7.13
   5   4  -2   28.65    5.18
   5   4  -2   24.43    5.63
  -5  -4   2   22.24    5.91
  -5  -4   2   13.94    8.27
   4   4  -2  362.89   26.71
   4   4  -2  419.72   27.81
   4   4  -2  369.65   25.33
   4   4  -2  357.52   26.97
   4   4  -2  368.84   34.44
  -4  -4   2  361.98   31.80
  -4  -4   2  376.14   26.98
   3   4  -2   86.35    9.08
   3   4  -2  104.91   10.93
   3   4  -2   83.92   10.47
   3   4  -2   97.65   16.80
   3   4  -2   92.44    9.63
  -3  -4   2   91.81    7.63
  -3  -4   2   92.63    9.33
  -3  -4   2   98.15   16.02
  -3  -4   2   95.59    7.67
   2   4  -2 1086.36   67.14
   2   4  -2 1115.66   69.46
   2   4  -2 1083.95   68.47
   2   4  -2 1065.40   66.48
   2   4  -2 1038.71   74.77
  -2  -4   2 1081.82   67.13
  -2  -4   2 1118.23   75.17
  -2  -4   2 1071.82   66.35
  -2  -4   2 1039.82   66.71
   1   4  -2  142.95   13.97
   1   4  -2  154.08   12.06
   1   4  -2   92.26   17.31
   1   4  -2  137.27   13.04
   1   4  -2  173.69   16.32
  -1  -4   2  147.00   12.14
  -1  -4   2  187.55   16.99
  -1  -4   2  127.78   21.02
  -1  -4   2  159.63   14.16
  -1  -4   2  144.05   13.58
   0   4  -2 2705.51  168.83
   0  -4   2 2615.56  169.49
  -1   4  -2  273.94   29.17
  -1   4  -2  248.80   24.37
  -1   4  -2  313.08   23.20
  -1   4  -2  272.59   22.02
   1  -4   2  248.71   29.18
   1  -4   2  280.47   22.20
   1  -4   2  284.76   20.25
   1  -4   2  323.32   26.85
   1  -4   2  273.53   23.05
  -2   4  -2 1691.09  108.24
  -2   4  -2 1364.46   99.22
  -2   4  -2 1486.63   96.45
   2  -4   2 1576.66  108.29
   2  -4   2 1640.60  102.16
   2  -4   2 1649.26   98.79
   2  -4   2 1515.03   96.72
  -3   4  -2  161.30   15.87
  -3   4  -2  156.09   15.25
  -3   4  -2  150.19   11.85
  -3   4  -2  141.71   21.65
  -3   4  -2  136.94   24.63
   3  -4   2  163.50   19.98
   3  -4   2  141.33   16.28
   3  -4   2  130.34   24.36
   3  -4   2  153.91   14.76
  -4   4  -2  843.05   63.03
  -4   4  -2  661.18   53.14
  -4   4  -2  791.42   50.94
  -4   4  -2  720.87   49.56
  -4   4  -2  712.88   44.93
   4  -4   2  710.31   49.62
   4  -4   2  651.56   54.34
   4  -4   2  699.51   51.47
   4  -4   2  773.35   63.14
  -5   4  -2    4.34    2.26
  -5   4  -2   11.89   20.46
  -5   4  -2   12.10    8.78
  -5   4  -2    1.89    4.49
  -5   4  -2   14.05    6.04
  -5   4  -2   10.41   11.65
   5  -4   2    3.20    5.33
   5  -4   2   -1.64    2.45
   5  -4   2   -2.47    7.27
  -6   4  -2  589.32   69.31
  -6   4  -2  573.37   55.64
  -6   4  -2  593.44   35.95
  -6   4  -2  638.33   42.97
  -6   4  -2  518.77   40.71
   6  -4   2  555.18   44.57
   6  -4   2  526.75   48.07
  -7   4  -2   -0.70   19.83
  -7   4  -2    6.21    2.35
  -7   4  -2   -7.00   13.86
  -7   4  -2    2.38    5.90
  -7   4  -2    0.77    4.90
   7  -4   2   -0.74    5.74
   7  -4   2   10.85   10.08
  -8   4  -2  346.53   28.73
  -8   4  -2  374.14   30.45
  -8   4  -2  354.35   22.94
  -8   4  -2  394.48   47.67
  -8   4  -2  404.90   68.36
   8  -4   2  310.53   32.52
   8  -4   2  360.45   37.99
  -9   4  -2   -1.68    3.95
  -9   4  -2    2.57    1.49
  -9   4  -2   32.26   22.14
  -9   4  -2   13.19   34.91
  -9   4  -2    3.54    5.54
   9  -4   2    6.15    7.83
   9  -4   2    0.61    9.01
 -10   4  -2  254.36   21.92
 -10   4  -2  194.54   56.35
 -10   4  -2  248.43   23.36
  10  -4   2  219.11   30.39
  10  -4   2  174.66   29.14
  10  -4   2  201.58   34.38
 -11   4  -2    6.39   49.61
 -11   4  -2   -0.03    3.17
 -11   4  -2    5.77    6.47
  11  -4   2   33.31   15.35
  11  -4   2   14.31    9.58
  11  -4   2   18.53   11.53
  11   3  -2  143.99   22.74
  11   3  -2  112.95   17.17
 -11  -3   2  122.50   16.70
 -11  -3   2   99.45   15.72
  10   3  -2   20.51    5.77
  10   3  -2   31.08   10.68
  10   3  -2   19.96    7.27
 -10  -3   2   16.62   11.09
 -10  -3   2   41.08   12.38
   9   3  -2  198.93   21.91
   9   3  -2  206.47   16.46
   9   3  -2  203.89   17.45
   9   3  -2  213.04   29.19
   9   3  -2  185.48   18.93
   9   3  -2  204.31   12.84
  -9  -3   2  185.88   22.86
   8   3  -2   70.81   17.39
   8   3  -2   56.66   10.17
   8   3  -2   52.96    5.51
   8   3  -2   55.55    8.99
   8   3  -2   39.25   10.75
   8   3  -2   60.90    8.06
  -8  -3   2   40.12   11.83
   7   3  -2  752.91   49.99
   7   3  -2  752.02   52.98
   7   3  -2  682.87   57.57
   7   3  -2  757.06   46.27
   7   3  -2  794.15   47.40
  -7  -3   2  762.67   54.54
   6   3  -2  102.42   12.57
   6   3  -2   98.61    8.17
   6   3  -2   91.76   17.83
   6   3  -2   78.91   13.10
   6   3  -2   96.30    8.44
  -6  -3   2  134.78   16.25
   5   3  -2  967.56   57.49
   5   3  -2  875.74   57.22
   5   3  -2  942.45   61.13
   5   3  -2  968.21   59.66
   5   3  -2  909.23   67.05
  -5  -3   2  898.44   60.70
  -5  -3   2 1033.61   65.05
   4   3  -2   56.83    6.36
   4   3  -2   44.53    7.59
   4   3  -2   30.36   10.35
   4   3  -2   49.88    6.40
   4   3  -2   44.85    7.98
  -4  -3   2   46.73   10.13
  -4  -3   2   38.36    7.40
   3   3  -2 3070.65  187.45
  -3  -3   2 2974.41  184.81
   2   3  -2  156.99   13.44
   2   3  -2  139.79   11.98
   2   3  -2  129.17   12.95
   2   3  -2  160.86   12.75
   2   3  -2  154.46   18.01
  -2  -3   2  151.39   12.34
  -2  -3   2  138.46   12.39
  -2  -3   2  167.90   17.42
  -2  -3   2  155.02   12.21
   1   3  -2 1627.43   92.25
   1   3  -2 1413.84   96.35
  -1  -3   2 1388.30   90.39
  -1  -3   2 1496.93   97.12
   0   3  -2    4.80    3.77
   0   3  -2    8.67    5.72
   0   3  -2    6.45    3.61
   0   3  -2    3.99    4.16
   0  -3   2    7.07    3.83
   0  -3   2    5.69    4.60
   0  -3   2    2.36    5.17
   0  -3   2    4.72    2.73
   0  -3   2    5.00    3.49
  -1   3  -2 1989.72  125.12
   1  -3   2 1926.51  125.55
   1  -3   2 1888.31  120.37
  -2   3  -2    3.52    2.93
  -2   3  -2    9.95    4.50
  -2   3  -2   -1.47    5.71
   2  -3   2    3.02    3.08
   2  -3   2   11.36    4.92
   2  -3   2    5.05    5.38
  -3   3  -2 2170.09  137.12
  -3   3  -2 1964.87  130.09
   3  -3   2 2158.74  138.47
   3  -3   2 2070.67  127.05
  -4   3  -2   41.90    4.69
  -4   3  -2   48.65   11.98
  -4   3  -2   24.58   10.86
  -4   3  -2   70.92   11.03
  -4   3  -2   54.68    9.05
   4  -3   2   55.79   13.04
   4  -3   2   60.66   16.31
   4  -3   2   52.86   10.80
   4  -3   2   64.84   10.49
  -5   3  -2  759.80   59.90
  -5   3  -2  761.61   48.51
  -5   3  -2  767.49   49.20
  -5   3  -2  634.30   52.01
   5  -3   2  701.98   54.22
   5  -3   2  698.14   50.48
   5  -3   2  688.29   48.49
  -6   3  -2  145.35   26.74
  -6   3  -2  145.15   14.40
  -6   3  -2  115.36    8.70
  -6   3  -2  129.16   20.68
  -6   3  -2  114.20   15.26
  -6   3  -2   62.69   27.50
   6  -3   2  108.12   17.05
   6  -3   2  125.27   21.66
   6  -3   2  119.45   16.27
  -7   3  -2 1277.57   79.97
  -7   3  -2 1344.54  108.98
  -7   3  -2 1146.65   87.75
  -7   3  -2 1235.42   94.71
  -7   3  -2 1344.12   79.92
   7  -3   2 1138.15   87.23
   7  -3   2 1244.51   83.87
  -8   3  -2   33.09    8.23
  -8   3  -2   57.89    9.68
  -8   3  -2   18.43   26.56
  -8   3  -2   20.86   16.42
   8  -3   2   36.62   11.00
   8  -3   2   40.76   14.67
  -9   3  -2  568.04   69.20
  -9   3  -2  354.96   31.63
  -9   3  -2  513.66   33.62
   9  -3   2  428.99   38.24
   9  -3   2  448.17   43.28
 -10   3  -2   -4.35    3.88
 -10   3  -2   -0.72    5.00
 -10   3  -2  -39.57   28.69
 -10   3  -2    8.24   21.25
  10  -3   2    1.29    3.59
  10  -3   2    1.96    9.69
  10  -3   2   -4.09    5.43
 -11   3  -2   96.16   49.77
  11  -3   2  142.27   23.46
  11  -3   2  175.64   30.80
  11  -3   2  135.19   23.94
  12   2  -2  121.68   22.27
  12   2  -2  144.16   21.10
 -12  -2   2  119.64   22.99
  11   2  -2   25.55    4.26
  11   2  -2   38.18   10.27
  11   2  -2   25.00   10.46
 -11  -2   2   17.65   14.95
 -11  -2   2   22.61   16.24
  10   2  -2  117.25   11.55
  10   2  -2  103.15    9.91
  10   2  -2  147.26   15.94
  10   2  -2  131.64   21.06
  10   2  -2  123.13   12.54
 -10  -2   2  129.73   24.16
 -10  -2   2   97.45   19.17
   9   2  -2   14.54    7.67
   9   2  -2    5.64    5.67
   9   2  -2    5.00    3.64
   9   2  -2   12.32    3.87
   9   2  -2   -3.37   15.16
   9   2  -2   10.48    4.23
  -9  -2   2   12.00   13.06
   8   2  -2  427.36   28.49
   8   2  -2  469.91   30.67
   8   2  -2  416.90   32.24
   8   2  -2  415.35   42.61
   8   2  -2  450.67   29.59
   8   2  -2  432.79   35.12
  -8  -2   2  405.33   39.26
   7   2  -2   39.42    8.21
   7   2  -2   46.53   10.60
   7   2  -2   40.60    6.39
   7   2  -2   32.04   13.92
   7   2  -2   35.19    5.32
   7   2  -2   32.97    6.69
  -7  -2   2   44.64   12.93
   6   2  -2  578.70   40.32
   6   2  -2  625.75   37.45
   6   2  -2  613.94   38.24
   6   2  -2  558.05   48.95
   6   2  -2  609.99   43.02
  -6  -2   2  631.75   47.60
   5   2  -2  270.52   17.65
   5   2  -2  242.46   20.79
   5   2  -2  255.90   26.76
   5   2  -2  256.21   16.47
   5   2  -2  236.63   19.06
  -5  -2   2  283.27   21.33
  -5  -2   2  239.30   24.60
   4   2  -2 1749.59  114.38
  -4  -2   2 1786.78  112.87
   3   2  -2   54.84    5.48
   3   2  -2   58.29    8.18
   3   2  -2   54.45    5.70
   3   2  -2   66.11    8.38
   3   2  -2   64.52   12.61
  -3  -2   2   54.05    5.08
  -3  -2   2   70.91   11.66
  -3  -2   2   54.67    5.32
  -3  -2   2   64.27    8.62
   2   2  -2 2742.52  169.34
  -2  -2   2 2756.33  167.97
   1   2  -2   13.03    6.03
   1   2  -2    8.93    3.30
   1   2  -2   10.68    3.65
  -1  -2   2   13.24    3.64
  -1  -2   2   23.20    6.85
  -1  -2   2   11.14    4.02
   0   2  -2 1103.55   71.24
   0  -2   2  987.21   70.56
   0  -2   2 1109.70   65.94
  -1   2  -2   23.50    5.34
  -1   2  -2   12.53    6.63
   1  -2   2   29.79    5.61
  -2   2  -2 3325.31  201.64
   2  -2   2 3222.11  201.78
  -3   2  -2    1.85    2.47
  -3   2  -2    4.37    3.63
  -3   2  -2    2.98    6.87
   3  -2   2    2.00    6.37
   3  -2   2   12.10    4.16
  -4   2  -2 1080.25   68.72
  -4   2  -2 1121.33   77.38
  -4   2  -2 1072.95   68.10
  -4   2  -2 1115.12   72.48
   4  -2   2 1039.39   69.68
   4  -2   2 1146.49   78.54
   4  -2   2 1088.62   73.44
   4  -2   2 1065.57   68.72
  -5   2  -2   61.56   12.56
  -5   2  -2   78.00   10.80
  -5   2  -2   49.11    4.35
  -5   2  -2   43.57   13.71
  -5   2  -2   76.05   10.46
   5  -2   2   72.58   11.74
   5  -2   2   60.19   13.38
   5  -2   2   63.72    9.95
  -6   2  -2  789.53   51.23
  -6   2  -2  738.16   71.45
  -6   2  -2  756.52   55.99
  -6   2  -2  865.39   51.35
  -6   2  -2  713.08   62.88
   6  -2   2  757.84   52.15
   6  -2   2  750.83   57.75
   6  -2   2  835.68   54.56
  -7   2  -2   64.63   14.34
  -7   2  -2   83.80   11.54
  -7   2  -2   68.60   23.45
  -7   2  -2   82.22   11.43
   7  -2   2   52.63   12.05
   7  -2   2   82.53   12.85
   7  -2   2   59.46   15.12
  -8   2  -2  702.87   58.69
  -8   2  -2  581.67   50.73
  -8   2  -2  694.07   42.40
  -8   2  -2  618.73   41.68
  -8   2  -2  615.94   67.45
   8  -2   2  543.61   50.08
   8  -2   2  607.15   46.77
  -9   2  -2  -24.84   13.78
  -9   2  -2   -2.38   20.75
  -9   2  -2    7.54    4.37
  -9   2  -2   12.83    4.77
   9  -2   2    2.33    9.04
   9  -2   2    8.64    6.82
 -10   2  -2  230.09   17.25
 -10   2  -2  179.47   35.79
 -10   2  -2  210.20   16.49
 -10   2  -2  227.24   49.55
  10  -2   2  185.85   30.58
  10  -2   2  225.58   24.52
  10  -2   2  211.30   28.72
 -11   2  -2   -9.51   22.92
 -11   2  -2   -2.85    1.66
 -11   2  -2   69.98   37.83
  11  -2   2    1.84    6.40
  11  -2   2    6.89    8.91
  11  -2   2    7.38   10.86
  12  -2   2  159.83   28.88
  12  -2   2  165.84   27.27
  12  -2   2  165.82   26.40
  12   1  -2   45.53   12.10
  12   1  -2   10.12    8.89
  12   1  -2   19.54    5.35
  12   1  -2   16.76    4.41
 -12  -1   2    9.69   20.50
  11   1  -2  166.65   14.30
  11   1  -2  171.79   23.08
  11   1  -2  210.40   28.16
  11   1  -2  183.85   16.22
 -11  -1   2  187.44   34.08
 -11  -1   2  125.25   27.65
  10   1  -2   10.03    3.50
  10   1  -2   11.82    4.92
  10   1  -2   13.76    7.19
  10   1  -2    0.21    3.38
  10   1  -2    2.76    4.25
 -10  -1   2    2.53   13.70
 -10  -1   2   11.20   16.99
   9   1  -2  378.11   29.14
   9   1  -2  412.31   32.58
   9   1  -2  419.72   30.08
   9   1  -2  446.23   49.22
   9   1  -2  437.69   36.19
   9   1  -2  426.21   28.67
  -9  -1   2  422.14   44.39
   8   1  -2   51.45    8.31
   8   1  -2   55.40    7.51
   8   1  -2   58.66   10.68
   8   1  -2   64.47   13.03
   8   1  -2   46.93   18.38
   8   1  -2   49.74    8.30
  -8  -1   2   24.25   14.58
   7   1  -2  786.86   51.11
   7   1  -2  831.78   53.93
   7   1  -2  884.54   57.20
   7   1  -2  787.11   51.02
   7   1  -2  744.31   50.97
   7   1  -2  787.46   65.30
  -7  -1   2  941.67   65.57
   6   1  -2    8.11    9.02
   6   1  -2    0.64    3.36
   6   1  -2   -2.28    1.97
   6   1  -2    3.38    4.41
  -6  -1   2   18.03    9.25
   5   1  -2 1972.01  128.79
  -5  -1   2 1977.46  120.48
  -5  -1   2 1939.25  126.56
   4   1  -2   26.95    6.05
   4   1  -2   22.68    8.86
   4   1  -2   33.03    5.95
   4   1  -2   46.67    4.62
   4   1  -2   26.24    2.59
  -4  -1   2   27.89    8.78
  -4  -1   2   32.09    3.43
  -4  -1   2   35.44    3.29
  -4  -1   2   32.99    6.48
   3   1  -2 1790.13  116.19
  -3  -1   2 1858.94  115.81
   2   1  -2  259.61   17.41
   2   1  -2  254.69   17.12
   2   1  -2  221.39   15.51
   2   1  -2  194.26   14.31
   2   1  -2  257.52   22.18
  -2  -1   2  257.46   17.18
  -2  -1   2  231.93   15.55
  -2  -1   2  233.82   16.41
  -2  -1   2  260.59   21.61
   1   1  -2  911.56   61.29
  -1  -1   2  926.88   60.76
   0   1  -2   77.13    9.94
   0   1  -2   66.90    6.95
   0   1  -2   78.38    7.80
   0   1  -2   83.06    7.04
   0   1  -2   92.02    8.31
   0  -1   2   70.55    7.21
   0  -1   2   75.36    7.16
   0  -1   2   96.96    8.96
   0  -1   2   61.51    7.40
   0  -1   2   75.98    9.96
  -1   1  -2 2790.52  168.96
   1  -1   2 2769.84  169.00
  -2   1  -2   35.81    5.43
  -2   1  -2   39.13    5.96
  -2   1  -2   39.05    8.78
  -2   1  -2   57.32    9.30
   2  -1   2   38.22    6.09
   2  -1   2   37.39    6.07
   2  -1   2   40.48    9.19
   2  -1   2   26.08    7.53
  -3   1  -2 2808.89  173.23
   3  -1   2 2811.07  173.63
  -4   1  -2   40.23    2.85
  -4   1  -2   53.45    7.12
  -4   1  -2   56.72    7.83
  -4   1  -2   34.21    8.68
   4  -1   2   36.99    6.77
   4  -1   2   52.56   12.47
   4  -1   2   32.94    9.21
   4  -1   2   33.25    6.83
  -5   1  -2 2770.94  174.11
  -6   1  -2   77.91    8.39
  -6   1  -2   45.98   18.77
  -6   1  -2  110.64   19.60
  -6   1  -2   76.01   13.84
  -6   1  -2   78.68    8.32
   6  -1   2   79.38   12.18
   6  -1   2   71.74   10.69
   6  -1   2   61.22   13.82
  -7   1  -2  542.86   57.69
  -7   1  -2  521.92   37.56
  -7   1  -2  615.61   44.91
  -7   1  -2  638.98   50.89
  -7   1  -2  646.64   38.37
   7  -1   2  579.09   46.44
   7  -1   2  560.56   40.49
   7  -1   2  608.89   42.43
  -8   1  -2  121.40   28.95
  -8   1  -2   92.55   20.64
  -8   1  -2   98.50    9.14
  -8   1  -2  102.29    9.20
  -8   1  -2  112.18   17.72
   8  -1   2   64.98   15.83
   8  -1   2   88.17   13.14
   8  -1   2   94.07   15.49
  -9   1  -2  286.75   47.10
  -9   1  -2  250.43   32.80
  -9   1  -2  267.80   16.97
   9  -1   2  206.86   22.90
   9  -1   2  234.24   27.94
 -10   1  -2   24.46   18.73
 -10   1  -2   23.61   26.81
  10  -1   2   37.60   11.90
  10  -1   2   44.12   11.21
  10  -1   2   47.66   15.84
 -11   1  -2  207.45   47.52
 -11   1  -2  198.84   36.18
  11  -1   2  193.76   25.81
  11  -1   2  180.85   29.86
  11  -1   2  145.09   25.42
 -12   1  -2   -4.65   24.31
  12  -1   2    5.46   10.52
  12  -1   2   18.86    9.76
  12  -1   2    2.49    8.00
  12   0  -2  148.76   23.03
  12   0  -2  168.95   17.08
  12   0  -2  120.85   23.01
  12   0  -2  125.53   12.01
 -12   0   2  156.14   34.70
  11   0  -2   16.70    4.13
  11   0  -2   25.97    7.32
  11   0  -2    5.63    6.74
  11   0  -2    9.25    8.52
 -11   0   2    3.91   18.54
 -11   0   2   -2.42   22.63
  10   0  -2  260.93   25.49
  10   0  -2  303.25   29.42
  10   0  -2  267.06   19.86
  10   0  -2  303.88   24.19
 -10   0   2  214.93   35.49
 -10   0   2  259.92   41.80
   9   0  -2   69.15   14.51
   9   0  -2   46.96   10.65
   9   0  -2   76.85   12.29
   9   0  -2   49.56    7.10
   9   0  -2   75.38   11.62
  -9   0   2   44.46   19.26
  -9   0   2   66.96   10.06
   8   0  -2  286.28   20.95
   8   0  -2  258.20   23.13
   8   0  -2  347.19   23.81
   8   0  -2  334.33   28.41
   8   0  -2  322.33   40.17
   8   0  -2  277.72   25.06
  -8   0   2  306.49   22.31
  -8   0   2  299.03   37.79
   7   0  -2   59.03    9.60
   7   0  -2   57.02    7.37
   7   0  -2   57.07   10.41
   7   0  -2   22.30   15.60
   7   0  -2   51.35   11.13
   7   0  -2   55.34    8.76
  -7   0   2   59.33    4.40
  -7   0   2   51.33    6.90
  -7   0   2   61.87   18.03
   6   0  -2  822.01   52.94
   6   0  -2  766.23   49.56
   6   0  -2  828.23   54.88
   6   0  -2  816.11   50.63
   6   0  -2  721.22   50.51
   6   0  -2  789.98   64.82
  -6   0   2  783.37   48.76
  -6   0   2  893.07   64.81
  -6   0   2  839.79   50.22
   5   0  -2   68.49    7.26
   5   0  -2   84.89   17.87
   5   0  -2   74.89    7.26
   5   0  -2   74.53   10.57
   5   0  -2   85.49    8.14
   5   0  -2   70.48   10.78
  -5   0   2   77.18   11.26
  -5   0   2   77.95    7.41
  -5   0   2   91.12   17.42
   4   0  -2 2355.68  152.20
  -4   0   2 2398.87  151.23
   3   0  -2  136.48   11.23
   3   0  -2  114.50   11.06
   3   0  -2  139.96   16.70
   3   0  -2  122.94    9.36
   3   0  -2  134.31    9.71
  -3   0   2  118.74    8.54
  -3   0   2  110.13    9.94
  -3   0   2  124.29   11.23
  -3   0   2  144.38   16.26
   2   0  -2  686.39   48.16
   2   0  -2  677.29   42.26
  -2   0   2  647.37   41.79
  -2   0   2  672.32   42.36
  -2   0   2  679.91   47.78
   1   0  -2  139.29   10.66
   1   0  -2  133.33   14.38
   1   0  -2  137.96   10.70
  -1   0   2  126.17   10.41
  -1   0   2  136.59   10.48
  -1   0   2  130.85   14.06
   0   0  -2  820.28   54.85
   0   0   2  846.13   54.78
  -1   0  -2  581.96   39.03
   1   0   2  557.64   38.43
  -2   0  -2   89.08    7.40
   2   0   2   84.43    7.44
  -3   0  -2   25.10    6.40
  -3   0  -2   28.10    4.21
   3   0   2   19.84    5.91
   3   0   2   45.75    7.95
   3   0   2   22.41    4.20
  -4   0  -2 1687.70  103.06
   4   0   2 1546.09  102.85
  -5   0  -2  188.11   13.04
  -5   0  -2  178.01   19.53
  -5   0  -2  188.88   25.09
  -5   0  -2  189.54   12.94
  -5   0  -2  174.12   16.99
   5   0   2  170.90   18.33
   5   0   2  193.82   14.80
   5   0   2  195.35   15.28
  -6   0  -2  942.59   57.26
  -6   0  -2  814.25   66.37
  -6   0  -2  861.80   60.28
   6   0   2  803.31   53.46
   6   0   2  763.42   52.52
   6   0   2  802.17   57.64
  -7   0  -2   28.06   14.65
  -7   0  -2   39.69    9.67
  -7   0  -2   35.84   11.57
  -7   0  -2   46.37    3.42
   7   0   2   45.88   12.26
   7   0   2   38.65    8.07
   7   0   2   43.51    7.86
  -8   0  -2  599.13   44.98
  -8   0  -2  690.85   51.76
  -8   0  -2  615.19   57.55
   8   0   2  580.77   42.71
   8   0   2  560.06   46.88
  -9   0  -2   67.24   17.69
  -9   0  -2   59.66   12.23
  -9   0  -2   53.43   20.50
   9   0   2   62.33   10.36
   9   0   2   45.84   11.63
   9   0   2   51.14   10.59
   9   0   2   63.87   15.55
 -10   0  -2  416.21   50.90
 -10   0  -2  356.31   40.89
  10   0   2  325.21   35.04
  10   0   2  462.97   33.86
  10   0   2  377.88   35.20
 -11   0  -2   -4.36   16.35
 -11   0  -2   -9.44   24.37
  11   0   2   13.10   11.83
  11   0   2   17.55    9.26
  11   0   2   21.00    8.17
 -12   0  -2   75.57   29.17
  12   0   2  125.71   24.77
  12   0   2  119.17   22.37
  12   0   2  112.72   19.32
  12  -1  -2   91.59   19.25
  12  -1  -2   59.95   15.82
  12  -1  -2   69.77   13.63
 -12   1   2  -29.10   25.66
  11  -1  -2  190.50   14.57
  11  -1  -2  163.44   24.39
  11  -1  -2  173.53   20.31
  11  -1  -2  163.57   26.64
 -11   1   2  168.87   40.68
 -11   1   2  206.47   19.00
 -11   1   2  169.76   35.54
  10  -1  -2   24.30    8.28
  10  -1  -2   13.30    8.12
  10  -1  -2   19.23    4.18
  10  -1  -2   19.12    9.40
 -10   1   2   19.89    6.52
 -10   1   2   12.50   22.13
 -10   1   2    4.71   16.82
   9  -1  -2  344.54   28.87
   9  -1  -2  329.96   27.27
   9  -1  -2  370.14   30.64
   9  -1  -2  330.11   31.07
   9  -1  -2  362.70   23.59
  -9   1   2  402.08   47.51
  -9   1   2  335.58   27.29
  -9   1   2  312.33   22.35
   8  -1  -2    6.12    5.76
   8  -1  -2   15.08   16.48
   8  -1  -2    1.23    5.44
   8  -1  -2    7.45    4.77
   8  -1  -2    7.61    6.58
   8  -1  -2    3.11    2.65
  -8   1   2   18.19    6.19
  -8   1   2    7.22    3.29
  -8   1   2   10.47    3.95
  -8   1   2   16.04   15.68
   7  -1  -2  651.13   46.91
   7  -1  -2  672.98   45.94
   7  -1  -2  638.49   44.68
   7  -1  -2  627.00   61.22
   7  -1  -2  615.83   43.10
   7  -1  -2  647.32   40.55
  -7   1   2  638.89   41.78
  -7   1   2  655.90   44.30
  -7   1   2  647.99   60.05
   6  -1  -2    0.15    3.58
   6  -1  -2    8.76    4.70
   6  -1  -2    4.01    3.26
   6  -1  -2    2.11    3.62
   6  -1  -2   12.68   12.21
   6  -1  -2    2.15    2.08
  -6   1   2   12.70   11.16
  -6   1   2    2.13    3.75
  -6   1   2    4.91    3.83
  -6   1   2    4.65    2.83
   5  -1  -2 1813.09  126.30
  -5   1   2 1868.11  125.82
   4  -1  -2   15.84    3.14
   4  -1  -2    9.48    4.60
   4  -1  -2   13.37    4.57
   4  -1  -2   10.40    3.84
   4  -1  -2    6.08    7.95
   4  -1  -2    7.99    3.29
  -4   1   2    4.22    3.18
  -4   1   2   10.99    3.11
  -4   1   2    6.81    2.59
  -4   1   2   14.39    8.31
  -4   1   2    7.12    3.87
  -4   1   2    7.10    4.01
   3  -1  -2  858.46   64.77
  -3   1   2  918.26   55.37
  -3   1   2  855.77   63.89
   2  -1  -2  237.46   17.42
   2  -1  -2  254.33   15.99
   2  -1  -2  249.25   18.01
   2  -1  -2  226.76   16.44
   2  -1  -2  240.65   23.88
  -2   1   2  250.43   16.41
  -2   1   2  258.70   16.09
  -2   1   2  224.99   23.04
  -2   1   2  244.16   17.00
  -2   1   2  238.47   17.66
  -2   1   2  259.35   17.80
   1  -1  -2 6471.17  383.72
   0  -1  -2  281.82   16.40
   0  -1  -2  201.90   20.06
   0  -1  -2  285.50   17.87
   0  -1  -2  270.28   16.69
   0  -1  -2  260.55   17.47
   0   1   2  223.25   17.43
   0   1   2  255.93   17.41
   0   1   2  317.82   16.54
   0   1   2  202.04   19.94
   0   1   2  278.75   16.69
  -1  -1  -2 5191.38  306.46
  -2  -1  -2    9.46    3.43
  -2  -1  -2    8.35    1.53
  -2  -1  -2    8.83    1.39
  -2  -1  -2    9.03    1.36
   2   1   2   10.03    1.39
   2   1   2   14.78    3.90
   2   1   2    8.85    2.05
   2   1   2   10.20    3.19
   2   1   2   10.77    1.89
  -3  -1  -2  256.13   20.60
   3   1   2  275.96   17.86
   3   1   2  295.12   16.88
  -4  -1  -2   65.91    8.13
  -4  -1  -2   68.88    8.82
   4   1   2   63.19    5.68
   4   1   2   62.40    5.65
   4   1   2   57.00    4.26
   4   1   2   69.31    9.00
   4   1   2   55.39    9.37
  -5  -1  -2 1570.22   98.95
  -5  -1  -2 1581.63  103.72
  -6  -1  -2   -2.61    4.69
  -6  -1  -2   18.42    9.00
  -6  -1  -2   -1.69    2.76
   6   1   2   -0.62    2.21
   6   1   2    0.20    0.72
   6   1   2    0.64    0.87
   6   1   2    1.40    4.61
   6   1   2   -0.94    2.03
  -7  -1  -2  840.84   59.38
  -7  -1  -2  880.40   65.39
  -7  -1  -2  905.77   57.36
   7   1   2  819.62   53.83
   7   1   2  771.23   58.11
   7   1   2  838.34   53.19
  -8  -1  -2   29.93    8.16
  -8  -1  -2    7.27   12.17
  -8  -1  -2   21.27    9.38
   8   1   2   19.31    4.96
   8   1   2   17.36    2.13
   8   1   2   16.44    2.05
   8   1   2   24.20    6.68
   8   1   2   11.47    8.66
  -9  -1  -2  625.08   53.26
  -9  -1  -2  557.77   44.66
   9   1   2  518.39   30.77
   9   1   2  523.48   38.03
   9   1   2  548.60   42.12
   9   1   2  515.84   30.76
   9   1   2  444.89   41.54
   9   1   2  530.30   36.74
 -10  -1  -2   11.10   17.26
 -10  -1  -2   20.50   12.48
  10   1   2    0.88    8.17
  10   1   2    3.60    4.20
  10   1   2   -6.94    3.50
  10   1   2   19.03    7.30
 -11  -1  -2  232.81   30.91
 -11  -1  -2  220.97   36.08
  11   1   2  232.45   22.43
  11   1   2  175.48   27.38
  11   1   2  202.92   29.78
 -12  -1  -2   12.36   18.06
  12   1   2    5.84    7.05
  12   1   2   12.56    8.66
  12   1   2    5.28    9.71
  12  -2  -2  145.30   23.62
  12  -2  -2  118.38   20.10
  12  -2  -2   98.47   20.99
  11  -2  -2   24.98   10.89
  11  -2  -2   36.12    5.59
  11  -2  -2   36.68   12.14
  11  -2  -2   42.01   11.46
 -11   2   2   42.43   10.76
 -11   2   2   -7.07   24.89
 -11   2   2   56.20   32.77
  10  -2  -2  191.68   27.18
  10  -2  -2  201.71   27.99
  10  -2  -2  219.74   23.84
  10  -2  -2  251.42   17.10
 -10   2   2  246.32   18.01
 -10   2   2  248.41   41.33
 -10   2   2  260.29   47.47
 -10   2   2  194.10   22.09
 -10   2   2  239.85   17.10
   9  -2  -2  119.65   18.37
   9  -2  -2   90.57    8.57
   9  -2  -2   97.27   17.66
   9  -2  -2   70.72   15.16
  -9   2   2  135.64   28.40
  -9   2   2  119.29   11.33
  -9   2   2   97.83   16.13
  -9   2   2   31.56   23.00
   8  -2  -2  750.74   49.56
   8  -2  -2  595.73   46.77
   8  -2  -2  626.12   40.50
   8  -2  -2  640.02   47.74
   8  -2  -2  590.90   44.55
  -8   2   2  687.07   43.84
  -8   2   2  576.97   46.26
  -8   2   2  693.41   42.06
  -8   2   2  669.61   66.34
   7  -2  -2   98.93    9.03
   7  -2  -2   88.95   14.88
   7  -2  -2  107.46   14.15
   7  -2  -2  116.37   12.24
   7  -2  -2  109.19   16.60
   7  -2  -2   91.58   28.12
  -7   2   2  111.40   14.07
  -7   2   2   99.72   28.04
  -7   2   2  132.43   10.73
  -7   2   2  103.37   10.67
  -7   2   2  110.31   11.98
   6  -2  -2  717.07   50.28
   6  -2  -2  770.17   67.29
   6  -2  -2  752.45   50.30
   6  -2  -2  708.35   44.78
   6  -2  -2  650.05   47.60
   6  -2  -2  725.65   50.39
  -6   2   2  713.03   46.26
  -6   2   2  698.94   45.38
  -6   2   2  727.81   65.17
  -6   2   2  824.49   49.19
  -6   2   2  730.86   50.61
   5  -2  -2   30.71    6.83
   5  -2  -2   50.97    9.73
   5  -2  -2   34.28    8.00
   5  -2  -2   38.73   15.77
   5  -2  -2   40.37    8.55
   5  -2  -2   33.22    4.88
  -5   2   2   37.61    8.81
  -5   2   2   29.01    7.22
  -5   2   2   37.92    5.34
  -5   2   2   36.94   15.21
  -5   2   2   48.75    7.33
   4  -2  -2 1877.57  125.67
   4  -2  -2 1804.35  111.22
  -4   2   2 1744.43  123.57
   3  -2  -2    1.89    2.40
   3  -2  -2    0.97    2.87
   3  -2  -2    0.99    1.42
   3  -2  -2   -8.82    4.40
   3  -2  -2   -0.97    2.47
   3  -2  -2    1.68    3.26
  -3   2   2    1.99    2.39
  -3   2   2    1.30    2.50
  -3   2   2    6.65    3.58
  -3   2   2   -0.72    6.09
  -3   2   2    2.08    3.04
  -3   2   2    0.94    1.35
   2  -2  -2 6608.36  389.54
  -2   2   2 6313.62  388.27
   1  -2  -2   47.15    6.12
   1  -2  -2   46.68    5.06
   1  -2  -2   46.76    6.97
   1  -2  -2   41.10    4.16
   1  -2  -2   33.87   10.18
  -1   2   2   49.83   11.80
  -1   2   2   53.09    7.35
  -1   2   2   43.54    5.49
  -1   2   2   60.55    6.85
  -1   2   2   43.99    4.24
   0   2   2 1683.68  106.20
  -1  -2  -2  239.88   20.49
  -1  -2  -2  255.45   16.30
  -1  -2  -2  268.45   16.39
  -1  -2  -2  246.34   15.90
   1   2   2  253.32   16.26
   1   2   2  244.80   20.33
   1   2   2  262.78   16.85
   1   2   2  283.71   16.47
   1   2   2  254.31   16.91
  -2  -2  -2 2316.26  140.55
   2   2   2 2390.01  140.10
  -3  -2  -2  199.35   14.48
   3   2   2  194.63   15.14
   3   2   2  184.82   12.53
   3   2   2  189.13   13.36
  -4  -2  -2 2968.89  171.87
  -4  -2  -2 2833.01  172.94
  -5  -2  -2   60.28    8.18
  -5  -2  -2   85.21   10.39
   5   2   2   77.98   11.49
   5   2   2   74.83    5.70
   5   2   2   81.72    5.91
   5   2   2   76.47    6.07
  -6  -2  -2 1599.53   97.83
  -6  -2  -2 1583.40  101.07
  -7  -2  -2   16.76    8.12
  -7  -2  -2    8.94    5.50
   7   2   2   19.88    4.35
   7   2   2   11.25    6.43
   7   2   2   19.06    4.14
   7   2   2   14.81    2.78
  -8  -2  -2  663.51   49.40
  -8  -2  -2  624.12   44.78
   8   2   2  649.34   47.40
   8   2   2  603.92   38.66
   8   2   2  674.86   41.20
   8   2   2  589.35   38.80
   8   2   2  640.94   41.79
   8   2   2  682.27   47.55
  -9  -2  -2    7.41   10.95
  -9  -2  -2    9.50    8.81
   9   2   2   16.05    6.81
   9   2   2   14.31    2.80
   9   2   2   20.61    5.32
   9   2   2   27.75    6.86
   9   2   2   22.77    9.48
   9   2   2   21.71    3.33
 -10  -2  -2  204.76   26.50
 -10  -2  -2  189.25   22.04
  10   2   2  187.49   12.70
  10   2   2  198.47   18.10
  10   2   2  175.71   23.10
  10   2   2  179.84   16.61
  10   2   2  214.69   22.96
  10   2   2  185.07   12.60
 -11  -2  -2    3.41   10.15
 -11  -2  -2   -0.19   14.09
  11   2   2   -0.23    3.33
  11   2   2   10.25    8.61
  11   2   2    4.64    1.26
  11   2   2    6.61    6.53
  11   2   2    0.51    4.83
  11   2   2    2.36    0.99
 -12  -2  -2  121.74   22.80
 -12  -2  -2  125.33   20.27
  12   2   2  156.19   25.81
  12   2   2  171.81   22.12
  12   2   2  130.91   18.88
  12  -3  -2   18.91   11.81
  12  -3  -2   11.34   10.02
  12  -3  -2    2.20    7.48
 -12   3   2   46.96   33.53
  11  -3  -2  271.75   28.57
  11  -3  -2  260.45   28.70
  11  -3  -2  224.85   31.02
 -11   3   2  238.39   19.28
 -11   3   2  289.71   56.44
  10  -3  -2   24.84   10.43
  10  -3  -2   11.75    8.43
  10  -3  -2   15.85    3.89
  10  -3  -2   17.00    9.70
 -10   3   2   19.61    5.83
 -10   3   2    3.11   21.42
 -10   3   2  -26.03   26.17
 -10   3   2   10.52    7.87
 -10   3   2   25.95    7.40
   9  -3  -2  305.14   28.92
   9  -3  -2  319.25   29.83
   9  -3  -2  299.05   29.40
   9  -3  -2  296.31   20.93
  -9   3   2  276.66   28.14
  -9   3   2  231.58   42.11
  -9   3   2  288.24   24.95
  -9   3   2  306.59   52.88
  -9   3   2  355.95   24.02
   8  -3  -2    7.55    6.92
   8  -3  -2   14.78    8.31
   8  -3  -2   25.26    8.62
   8  -3  -2   19.52    3.89
  -8   3   2   15.15    8.90
  -8   3   2   -2.94   19.47
  -8   3   2   23.58    6.72
  -8   3   2   18.03    7.54
  -8   3   2   16.51    4.61
   7  -3  -2  536.92   39.79
   7  -3  -2  458.66   39.48
   7  -3  -2  500.53   37.62
   7  -3  -2  634.78   64.51
   7  -3  -2  512.94   40.76
   7  -3  -2  493.78   32.95
  -7   3   2  492.31   40.87
  -7   3   2  519.48   35.64
  -7   3   2  527.82   33.90
  -7   3   2  522.49   37.72
  -7   3   2  591.11   60.84
   6  -3  -2   25.37    4.43
   6  -3  -2   35.48   10.17
   6  -3  -2   30.51    7.04
   6  -3  -2   25.08    8.15
   6  -3  -2   45.63   20.22
   6  -3  -2   28.45    7.96
  -6   3   2   31.70    5.21
  -6   3   2   18.72    5.80
  -6   3   2   37.26    8.87
  -6   3   2   71.25   23.59
  -6   3   2   36.28   10.60
   5  -3  -2 1091.19   84.13
   5  -3  -2 1004.35   65.13
   5  -3  -2 1027.58   64.82
   5  -3  -2  946.03   62.90
   5  -3  -2  949.16   62.07
  -5   3   2  982.51   61.23
  -5   3   2  892.57   62.61
  -5   3   2  993.42   81.45
  -5   3   2  848.27   64.11
   4  -3  -2  201.14   18.32
   4  -3  -2  193.90   16.61
   4  -3  -2  191.81   16.62
   4  -3  -2  201.80   18.85
   4  -3  -2  241.74   31.93
   4  -3  -2  203.09   14.01
  -4   3   2  190.27   16.00
  -4   3   2  197.32   18.92
  -4   3   2  185.20   13.97
  -4   3   2  224.85   29.10
  -4   3   2  170.61   17.01
   3  -3  -2 5190.51  323.92
  -3   3   2 5256.07  323.97
   2  -3  -2  150.47   13.85
   2  -3  -2  143.49   12.27
   2  -3  -2  190.12   24.06
   2  -3  -2  162.16   13.01
   2  -3  -2  150.37   11.21
  -2   3   2  151.74   12.26
  -2   3   2  169.86   11.52
  -2   3   2  165.81   14.12
  -2   3   2  147.85   14.78
  -2   3   2  148.89   12.64
  -2   3   2  171.22   26.24
   1  -3  -2 2627.80  168.68
  -1   3   2 2674.06  168.87
   0  -3  -2  140.08   11.52
   0  -3  -2  144.98    9.89
   0  -3  -2  134.83   10.09
   0  -3  -2  121.33   10.46
   0   3   2  136.76   11.61
   0   3   2  135.00   10.04
   0   3   2  164.60   18.30
   0   3   2  149.76    9.67
   0   3   2  133.97   10.73
  -1  -3  -2 2206.07  139.10
   1   3   2 2277.44  139.15
  -2  -3  -2   49.49    8.32
   2   3   2   53.27    4.85
   2   3   2   37.55    7.17
   2   3   2   73.45    4.67
   3   3   2 3724.48  229.06
   3   3   2 4134.48  229.02
   4   3   2  179.96   12.75
   5   3   2  920.77   56.95
   5   3   2  833.86   53.09
   6   3   2    5.40    2.24
   6   3   2    2.33    3.68
   6   3   2    3.20    0.87
   7   3   2  874.55   58.82
   7   3   2  882.81   59.14
   7   3   2  877.56   53.29
   7   3   2  852.87   52.26
   7   3   2  872.31   52.48
   8   3   2   24.45    4.68
   8   3   2   25.77    8.72
   8   3   2   29.30    4.50
   8   3   2   30.31    4.69
   8   3   2   19.21    7.54
   9   3   2  379.88   32.11
   9   3   2  372.98   25.68
   9   3   2  361.50   31.58
   9   3   2  315.47   23.51
   9   3   2  366.04   24.63
   9   3   2  355.62   23.60
  10   3   2   20.99    4.07
  10   3   2   23.37   10.73
  10   3   2   17.54    8.46
  10   3   2   14.44    5.24
  10   3   2   17.38    3.73
  10   3   2   21.85    5.36
  11   3   2  160.55   12.39
  11   3   2  128.81   22.22
  11   3   2  193.54   17.33
  11   3   2  175.93   26.11
  11   3   2  189.05   16.30
  12   3   2   -2.55    6.50
  12   3   2   -0.16    8.06
  12   3   2    4.41    1.96
  12   3   2    7.46    5.33
  12   3   2    6.01    1.95
  12   3   2    1.57    5.02
  11  -4  -2    0.83    7.62
  11  -4  -2   37.21   13.33
  11  -4  -2   22.82    9.83
  11  -4  -2   22.08    4.38
 -11   4   2   40.80    8.35
 -11   4   2    1.05    5.02
 -11   4   2  -24.24   27.32
 -11   4   2  -63.31   37.57
  10  -4  -2  254.71   19.30
  10  -4  -2  236.58   28.71
  10  -4  -2  264.28   29.76
  10  -4  -2  260.91   28.80
 -10   4   2  293.76   23.31
 -10   4   2  274.17   60.11
 -10   4   2  332.12   25.87
   9  -4  -2   32.75   11.97
   9  -4  -2   37.77   12.64
   9  -4  -2   39.47   11.08
   9  -4  -2   34.84    5.62
  -9   4   2   38.29    8.97
  -9   4   2   38.61    6.84
  -9   4   2   62.62   32.30
  -9   4   2   22.92   21.90
  -9   4   2   40.42    9.97
   8  -4  -2  398.88   34.87
   8  -4  -2  361.00   35.93
   8  -4  -2  441.39   27.81
   8  -4  -2  388.18   35.84
  -8   4   2  411.74   33.19
  -8   4   2  487.71   62.73
  -8   4   2  404.76   37.02
  -8   4   2  442.92   32.01
  -8   4   2  430.77   28.75
  -8   4   2  379.28   45.48
   7  -4  -2   79.48   15.60
   7  -4  -2   66.84   14.78
   7  -4  -2   57.21   12.11
   7  -4  -2   70.42    6.93
  -7   4   2   67.84   11.64
  -7   4   2   52.07   13.85
  -7   4   2   62.64   27.94
  -7   4   2   62.94    8.21
  -7   4   2   51.09   20.52
  -7   4   2   79.20   13.85
   6  -4  -2  800.42   48.96
   6  -4  -2  799.14   56.44
   6  -4  -2  827.53   54.85
   6  -4  -2  756.81   57.07
   6  -4  -2  793.87   53.88
  -6   4   2  678.37   56.26
  -6   4   2  792.02   54.71
  -6   4   2  717.83   73.95
  -6   4   2  834.57   52.91
  -6   4   2  815.11   49.32
   5  -4  -2  128.31   10.76
   5  -4  -2  135.32   14.34
   5  -4  -2  149.65   34.50
   5  -4  -2  153.13   20.11
   5  -4  -2  127.99   13.51
   5  -4  -2  172.95   18.65
  -5   4   2  135.04   17.24
  -5   4   2  123.35   13.32
  -5   4   2  131.43   11.13
  -5   4   2  138.60   14.79
  -5   4   2  163.90   34.63
   4  -4  -2  475.06   34.64
   4  -4  -2  453.17   36.77
   4  -4  -2  505.18   31.88
   4  -4  -2  485.15   35.24
   4  -4  -2  542.85   39.25
   4  -4  -2  512.25   53.81
  -4   4   2  424.89   50.07
  -4   4   2  511.04   35.08
  -4   4   2  462.36   37.93
  -4   4   2  548.87   37.31
  -4   4   2  508.23   32.06
   3  -4  -2  246.76   32.87
   3  -4  -2  224.51   17.22
   3  -4  -2  210.82   19.54
   3  -4  -2  230.18   21.29
   3  -4  -2  228.92   18.26
   3  -4  -2  208.94   15.19
  -3   4   2  215.36   17.69
  -3   4   2  217.65   19.26
  -3   4   2  179.94   32.21
  -3   4   2  202.60   20.27
  -3   4   2  202.31   15.31
   2  -4  -2 1614.67  114.68
  -2   4   2 1594.09   99.48
  -2   4   2 1604.74  113.85
   1  -4  -2  462.52   28.91
   1  -4  -2  476.87   43.48
   1  -4  -2  449.00   31.71
   1  -4  -2  428.10   30.13
   1  -4  -2  450.05   28.52
  -1   4   2  440.35   31.55
  -1   4   2  443.46   28.82
  -1   4   2  405.95   30.04
  -1   4   2  476.38   34.01
  -1   4   2  491.16   43.27
   0   4   2 1379.56   95.51
  -1  -4  -2  442.97   37.83
  -1  -4  -2  456.67   28.19
  -1  -4  -2  455.97   28.86
   1   4   2  459.79   26.74
   1   4   2  380.90   28.54
   1   4   2  467.02   28.88
   1   4   2  419.32   37.05
   1   4   2  481.44   30.11
   2   4   2  879.50   57.53
   2   4   2  897.89   54.11
   2   4   2  867.97   60.57
   3   4   2  276.59   17.38
   3   4   2  270.86   18.82
   3   4   2  284.23   19.59
   3   4   2  275.96   17.07
   3   4   2  249.01   20.68
   5   4   2   18.90    5.06
   5   4   2   23.79    4.38
   6   4   2 1039.79   68.24
   6   4   2 1104.29   68.78
   6   4   2 1033.56   64.89
   7   4   2   28.48    5.13
   7   4   2   21.82    7.14
   7   4   2   27.20    7.41
   8   4   2  377.04   25.28
   8   4   2  379.80   30.78
   8   4   2  358.10   23.42
   8   4   2  391.20   30.40
   8   4   2  355.87   22.95
   9   4   2   48.01    5.22
   9   4   2   42.88    6.36
   9   4   2   33.39    9.78
   9   4   2   38.30   10.63
   9   4   2   34.24    6.01
  10   4   2  298.67   22.47
  10   4   2  306.12   22.53
  10   4   2  314.39   22.95
  10   4   2  339.78   30.49
  10   4   2  404.20   32.48
  10   4   2  332.01   23.82
  11   4   2   31.61   10.79
  11   4   2   24.75    6.33
  11   4   2   22.73    4.52
  11   4   2   22.96    4.67
  11   4   2   21.66    5.63
  11   4   2   43.12   11.90
  11  -5  -2   95.29   19.83
  11  -5  -2   82.42   19.90
  11  -5  -2   68.77   18.64
 -11   5   2   19.93   34.39
 -11   5   2  116.53   49.15
  10  -5  -2   35.21   12.23
  10  -5  -2   42.84    6.26
  10  -5  -2   28.10   12.63
  10  -5  -2   28.43   10.79
 -10   5   2   12.00   33.96
 -10   5   2   38.36    7.10
 -10   5   2    7.84   22.71
 -10   5   2   25.53    8.09
   9  -5  -2  275.40   28.73
   9  -5  -2  262.89   26.02
   9  -5  -2  242.58   29.78
   9  -5  -2  228.14   18.14
  -9   5   2  318.18   61.24
  -9   5   2  263.15   46.74
  -9   5   2  236.83   22.52
  -9   5   2  246.05   19.42
   8  -5  -2   22.34   10.31
   8  -5  -2   35.36   11.08
   8  -5  -2   23.23    4.69
   8  -5  -2   28.49    9.80
  -8   5   2   22.90   17.50
  -8   5   2   21.97    5.30
  -8   5   2   37.28   29.74
  -8   5   2    7.92    6.92
   7  -5  -2  437.58   33.59
   7  -5  -2  392.00   35.21
   7  -5  -2  402.72   36.91
   7  -5  -2  390.35   26.55
  -7   5   2  301.29   34.25
  -7   5   2  379.59   32.63
  -7   5   2  460.40   61.70
  -7   5   2  412.09   48.30
  -7   5   2  399.08   27.01
  -7   5   2  399.62   31.16
   6  -5  -2   46.93   10.01
   6  -5  -2   13.73    9.29
   6  -5  -2   38.07    5.93
   6  -5  -2   33.37   11.03
  -6   5   2   41.53   12.43
  -6   5   2   31.13   15.86
  -6   5   2   34.50   23.99
  -6   5   2   27.48    7.93
  -6   5   2   26.86    5.47
  -6   5   2   14.04    7.02
   5  -5  -2  651.52   47.84
   5  -5  -2  655.93   50.55
   5  -5  -2  679.07   43.53
   5  -5  -2  755.57   53.59
   5  -5  -2  674.48   47.43
  -5   5   2  723.31   48.04
  -5   5   2  716.71   72.20
  -5   5   2  720.33   62.74
  -5   5   2  665.00   49.25
  -5   5   2  696.27   43.86
  -5   5   2  632.80   51.31
   4  -5  -2    9.79    3.16
   4  -5  -2    2.49    5.57
   4  -5  -2    3.61    5.34
   4  -5  -2    6.33    4.76
   4  -5  -2    4.28    3.99
  -4   5   2  -12.55   14.99
  -4   5   2    9.21    5.82
  -4   5   2    3.51    3.58
  -4   5   2    3.41    2.62
  -4   5   2    9.11    7.10
   3  -5  -2  572.01   41.82
   3  -5  -2  554.86   36.47
   3  -5  -2  605.97   40.14
   3  -5  -2  572.43   44.01
   3  -5  -2  571.00   38.08
  -3   5   2  570.76   39.76
  -3   5   2  531.96   40.87
  -3   5   2  570.95   36.71
  -3   5   2  508.11   42.68
  -3   5   2  691.48   60.01
   2  -5  -2   91.69    8.79
   2  -5  -2   82.69    8.15
   2  -5  -2   90.40   13.88
   2  -5  -2   91.61   10.51
  -2   5   2  109.84   14.75
  -2   5   2  121.35   25.82
  -2   5   2   96.08    8.77
  -2   5   2   90.23   15.72
  -2   5   2   86.78   12.35
  -1   5   2 1789.89  119.67
  -1   5   2 1573.40  105.49
  -1   5   2 1652.17  103.03
   0  -5  -2   14.83    5.22
   0  -5  -2   16.13    4.44
   0  -5  -2   15.18    2.13
   0   5   2   25.32    6.29
   0   5   2   16.24    6.91
   0   5   2    3.00    5.69
   0   5   2   14.43    4.59
   0   5   2    8.61    2.94
   0   5   2   13.07    9.45
   1   5   2 1541.40  102.73
   1   5   2 1386.30   96.24
   1   5   2 1508.63   90.91
   2   5   2  233.81   17.98
   2   5   2  250.87   18.63
   2   5   2  296.82   28.25
   2   5   2  258.44   15.42
   2   5   2  241.87   15.28
   2   5   2  224.52   17.63
   2   5   2  276.10   23.03
   3   5   2  988.34   60.56
   3   5   2  953.03   57.84
   3   5   2  917.08   63.66
   3   5   2  904.86   56.46
   3   5   2  907.95   56.17
   3   5   2  908.87   57.07
   4   5   2   59.28    5.75
   4   5   2   61.29    5.44
   4   5   2   63.82    6.60
   4   5   2   74.10    8.04
   4   5   2   58.72    7.83
   4   5   2   65.50    8.36
   5   5   2 1349.67   82.19
   5   5   2 1337.92   83.12
   6   5   2   23.22    6.10
   6   5   2   25.88    5.45
   7   5   2  489.42   33.49
   7   5   2  489.13   36.77
   7   5   2  513.50   37.04
   8   5   2    0.49    2.61
   8   5   2    5.33    4.78
   8   5   2    4.59    1.25
   8   5   2   -0.60    4.37
   9   5   2  433.22   30.35
   9   5   2  411.97   27.82
   9   5   2  456.31   27.24
   9   5   2  472.44   35.69
   9   5   2  421.19   35.86
  10   5   2   18.93    3.99
  10   5   2   19.79    4.49
  10   5   2   16.20    8.60
  10   5   2   16.10    4.69
  10   5   2   32.46    9.56
  11   5   2  162.05   14.73
  11   5   2  171.09   14.81
  11   5   2  171.11   14.03
  11   5   2  173.99   14.90
  11   5   2  186.42   26.40
  11   5   2  189.74   21.10
  10  -6  -2  121.00   20.96
  10  -6  -2  185.09   28.93
  10  -6  -2  125.58   25.28
 -10   6   2  134.73   19.97
 -10   6   2  133.40   13.19
 -10   6   2  101.36   46.96
   9  -6  -2    5.37    8.84
   9  -6  -2    3.95    3.16
   9  -6  -2    4.00    9.18
   9  -6  -2   -0.78    5.80
  -9   6   2   19.60   38.98
  -9   6   2   14.49    4.73
  -9   6   2    6.90    7.18
  -9   6   2   26.03   26.07
   8  -6  -2  372.63   35.18
   8  -6  -2  337.74   24.06
   8  -6  -2  384.93   32.12
   8  -6  -2  321.89   35.38
  -8   6   2  295.24   28.52
  -8   6   2  311.52   65.73
  -8   6   2  331.50   24.73
  -8   6   2  378.36   49.89
   7  -6  -2   32.58    9.20
   7  -6  -2   19.11   11.10
   7  -6  -2   25.98    9.61
   7  -6  -2   21.49    4.70
  -7   6   2   28.15   26.84
  -7   6   2   22.96   22.89
  -7   6   2   17.03    5.25
  -7   6   2   36.86   10.68
   6  -6  -2  570.57   47.71
   6  -6  -2  584.82   41.95
   6  -6  -2  557.21   36.75
   6  -6  -2  508.61   44.25
  -6   6   2  605.82   37.52
  -6   6   2  582.97   60.15
  -6   6   2  461.65   62.84
  -6   6   2  515.26   40.97
   5  -6  -2   21.90    8.83
   5  -6  -2   19.91    4.68
   5  -6  -2   38.64    8.83
   5  -6  -2   21.94   10.45
  -5   6   2   16.66   16.60
  -5   6   2   14.20   17.96
  -5   6   2    9.77    7.04
  -5   6   2   20.29    8.00
  -5   6   2   25.43    5.56
  -5   6   2   39.39   11.59
   4  -6  -2  656.81   46.51
   4  -6  -2  634.92   49.03
   4  -6  -2  636.52   42.23
   4  -6  -2  517.22   49.51
   4  -6  -2  697.66   44.94
  -4   6   2  648.49   51.12
  -4   6   2  786.82   73.40
  -4   6   2  645.27   46.49
  -4   6   2  603.88   47.34
  -4   6   2  732.84   43.06
  -4   6   2  735.06   62.31
   3  -6  -2    0.66    3.90
   3  -6  -2    5.12    2.94
   3  -6  -2    6.65    6.05
   3  -6  -2    1.01    2.95
  -3   6   2   -0.41    4.70
  -3   6   2    4.33    5.29
  -3   6   2    2.07    2.85
  -3   6   2   -7.43   10.66
  -3   6   2    3.24    3.56
  -3   6   2    3.21   15.11
   2  -6  -2  900.46   61.97
   2  -6  -2 1005.19   65.01
   2  -6  -2  885.71   59.25
   2  -6  -2  972.08   59.28
  -2   6   2  964.83   83.26
  -2   6   2 1028.18   63.42
  -2   6   2  911.75   63.83
  -2   6   2  978.27   74.64
  -2   6   2  965.46   67.68
   1  -6  -2    9.71    2.60
   1  -6  -2    6.79    5.25
   1  -6  -2    9.26    4.39
  -1   6   2    0.48    7.18
  -1   6   2    6.30    3.05
  -1   6   2    8.44    5.37
  -1   6   2    8.04   12.84
  -1   6   2   12.27    7.11
  -1   6   2   11.48    4.49
   0  -6  -2 1517.74   93.80
   0  -6  -2 1509.55   95.26
   0   6   2 1468.56  104.51
   0   6   2 1503.80   94.89
   0   6   2 1838.41  116.21
   0   6   2 1498.15   96.01
   0   6   2 1483.42   99.66
  -1  -6  -2   32.69    6.69
  -1  -6  -2   47.50    6.59
   1   6   2   56.34   17.02
   1   6   2   41.02    7.25
   1   6   2   53.88    9.46
   1   6   2   44.57    6.87
   1   6   2   37.92   11.58
   1   6   2   56.22   12.33
   2   6   2 1458.55   96.75
   2   6   2 1485.65   90.90
   2   6   2 1455.90  103.06
   3   6   2    0.29    2.78
   3   6   2    2.82    1.32
   3   6   2    0.47    5.15
   3   6   2    4.01    3.17
   3   6   2    0.85    2.47
   3   6   2   -1.52    7.95
   4   6   2  611.45   39.45
   4   6   2  606.96   40.45
   4   6   2  573.32   38.15
   4   6   2  582.03   37.61
   4   6   2  598.09   37.45
   4   6   2  579.25   43.77
   5   6   2  182.75   14.41
   5   6   2  142.78   11.89
   5   6   2  168.68   12.64
   5   6   2  185.30   14.78
   6   6   2  658.92   47.27
   6   6   2  698.20   44.35
   6   6   2  746.66   48.70
   6   6   2  798.10   44.45
   7   6   2  100.19   14.28
   7   6   2  116.80    7.88
   7   6   2  107.82   13.76
   7   6   2  102.35   11.23
   7   6   2  102.89    7.65
   8   6   2  646.21   44.73
   8   6   2  592.24   35.93
   8   6   2  594.01   36.30
   8   6   2  620.69   44.52
   8   6   2  597.93   40.75
   9   6   2    2.39    3.42
   9   6   2    1.31    1.69
   9   6   2    3.68    1.39
   9   6   2   -3.86    3.64
   9   6   2    0.09    4.77
  10   6   2  149.53   14.90
  10   6   2  187.63   20.20
  10   6   2  154.27   12.28
  10   6   2  167.94   11.67
  10   6   2  230.14   22.12
  11   6   2   -3.78    5.89
  11   6   2   -2.41    6.68
  10  -7  -2   21.86    9.17
  10  -7  -2   -0.43    7.86
  10  -7  -2   26.63   12.66
 -10   7   2   -7.26   49.24
 -10   7   2    4.16   38.77
 -10   7   2    3.68    4.11
 -10   7   2    9.71    7.91
   9  -7  -2  157.58   27.99
   9  -7  -2  152.83   24.19
   9  -7  -2  118.32   25.74
  -9   7   2  191.27   20.75
  -9   7   2  166.45   15.04
  -9   7   2  126.24   57.54
   8  -7  -2    8.64    9.15
   8  -7  -2    9.05   10.58
   8  -7  -2    2.94    6.05
  -8   7   2   22.93   39.84
  -8   7   2    4.20    6.74
  -8   7   2   20.06    5.23
  -8   7   2    7.39   20.43
   7  -7  -2  313.99   33.02
   7  -7  -2  254.04   32.92
   7  -7  -2  323.65   28.53
  -7   7   2  291.14   51.03
  -7   7   2  294.08   23.23
  -7   7   2  355.66   29.09
  -7   7   2  390.54   70.48
   6  -7  -2    4.31    3.23
   6  -7  -2    3.41    4.83
   6  -7  -2   10.24    9.21
   6  -7  -2    7.26    7.66
  -6   7   2    4.57    3.79
  -6   7   2    9.54    7.25
  -6   7   2  -17.97   27.13
  -6   7   2  -17.03   19.22
   5  -7  -2  148.72   15.68
   5  -7  -2  170.29   27.45
   5  -7  -2   85.58   18.64
  -5   7   2  159.73   42.50
  -5   7   2  144.02   19.73
  -5   7   2  139.79   13.23
  -5   7   2  140.01   33.25
   4  -7  -2   16.68    5.84
   4  -7  -2    8.44    7.76
  -4   7   2    2.96    3.38
  -4   7   2   12.50   20.80
  -4   7   2    2.86   14.06
  -4   7   2    1.36    5.34
   3  -7  -2 1080.44   68.19
   3  -7  -2 1123.18   74.75
   3  -7  -2 1106.58   71.85
  -3   7   2 1165.35   68.40
  -3   7   2 1053.42   87.12
  -3   7   2 1192.15  101.10
  -3   7   2 1104.01   72.53
  -3   7   2  910.15   79.10
  -3   7   2  990.01   75.88
   2  -7  -2  105.30   16.59
   2  -7  -2   91.48    9.22
   2  -7  -2  107.11   15.33
  -2   7   2   91.89   18.54
  -2   7   2  102.63   30.21
  -2   7   2  143.50   26.05
  -2   7   2   96.45   10.10
  -2   7   2   91.92   15.46
  -2   7   2   88.37   14.20
   1  -7  -2  900.29   64.74
   1  -7  -2  926.79   58.16
   1  -7  -2  970.09   63.17
  -1   7   2  985.05   61.47
  -1   7   2  932.00   69.03
  -1   7   2  997.20   76.46
  -1   7   2  986.17   64.53
  -1   7   2 1004.16   65.81
  -1   7   2 1083.69   87.85
   0  -7  -2   37.27    7.07
   0  -7  -2   32.62    8.64
   0   7   2   42.04    9.62
   0   7   2   24.62    6.02
   0   7   2   29.94   10.48
   0   7   2   31.11   12.48
   0   7   2   23.31   16.74
   0   7   2   31.21    8.26
  -1  -7  -2  811.56   50.77
  -1  -7  -2  767.48   49.36
   1   7   2  797.12   68.84
   1   7   2  664.17   49.48
   1   7   2  784.75   61.22
   1   7   2  768.55   56.99
   1   7   2  759.49   52.39
   1   7   2  832.94   52.05
  -2  -7  -2   22.13    3.07
   2   7   2   28.29    6.61
   2   7   2   28.67   15.55
   2   7   2   32.55    7.16
   2   7   2   34.58    6.80
   2   7   2   34.07   10.48
   2   7   2   23.48   10.59
   3   7   2  948.99   66.00
   3   7   2  984.16   60.54
   3   7   2  901.78   60.55
   3   7   2  931.84   66.54
   3   7   2  879.64   72.41
   3   7   2  969.47   60.12
   4   7   2   -0.59    2.66
   4   7   2    2.90    3.57
   4   7   2    3.24    9.93
   4   7   2    1.77    3.54
   4   7   2    0.36    1.49
   4   7   2   -0.02    5.54
   5   7   2  473.27   33.61
   5   7   2  456.00   32.32
   5   7   2  447.28   30.86
   5   7   2  454.76   31.38
   5   7   2  466.83   30.56
   5   7   2  477.83   32.99
   6   7   2  100.16    9.55
   6   7   2  107.66   10.97
   6   7   2   90.83    8.94
   6   7   2  115.39   13.67
   7   7   2  468.41   29.92
   7   7   2  455.70   29.95
   7   7   2  473.15   33.56
   7   7   2  461.30   33.77
   8   7   2    6.31    4.73
   8   7   2   10.86    2.98
   8   7   2   10.35    2.75
   8   7   2   22.07    7.71
   8   7   2    6.05    5.25
   9   7   2  144.89   10.14
   9   7   2  181.11   18.76
   9   7   2  134.47   14.65
   9   7   2  139.97   10.79
   9   7   2  166.63   17.50
  10   7   2    2.83    5.90
  10   7   2   12.73    3.07
  10   7   2    6.08    4.30
  10   7   2    9.14    7.42
  10   7   2   13.08    2.44
   9  -8  -2   16.76   12.69
   9  -8  -2   48.07   16.03
   9  -8  -2   30.21   10.28
  -9   8   2  -47.36   40.30
  -9   8   2   21.02   10.14
  -9   8   2   10.09   56.07
  -9   8   2    6.89    4.89
   8  -8  -2  164.46   23.21
   8  -8  -2  149.18   26.70
   8  -8  -2  175.52   31.52
  -8   8   2   50.34   52.88
  -8   8   2  113.79   35.79
  -8   8   2  144.55   22.37
  -8   8   2  162.63   14.96
   7  -8  -2    6.23    6.44
   7  -8  -2    3.08    8.32
   7  -8  -2   21.56   12.59
  -7   8   2   -3.08   26.21
  -7   8   2    0.89    4.43
  -7   8   2   11.83    5.46
  -7   8   2   12.33   40.64
   6  -8  -2  234.03   32.45
   6  -8  -2  234.43   22.91
  -6   8   2  243.97   20.15
  -6   8   2  240.81   24.61
  -6   8   2  220.60   60.34
  -6   8   2  208.70   42.52
   5  -8  -2    9.56    7.63
   5  -8  -2   -1.59    3.48
  -5   8   2   -2.45    3.01
  -5   8   2   19.18   30.78
  -5   8   2  -13.69   19.28
  -5   8   2    5.87    6.58
   4  -8  -2  359.75   34.96
   4  -8  -2  378.22   28.79
  -4   8   2  465.11   51.55
  -4   8   2  413.54   66.47
  -4   8   2  353.23   27.82
  -4   8   2  379.69   32.80
   3  -8  -2   79.03   16.12
   3  -8  -2   52.10    8.62
  -3   8   2  119.91   35.01
  -3   8   2   76.86   10.96
  -3   8   2   58.78   23.49
  -3   8   2   95.29   16.54
   2  -8  -2  603.74   44.58
   2  -8  -2  606.70   39.75
   2  -8  -2  666.25   48.23
  -2   8   2  708.62   71.81
  -2   8   2  607.27   45.96
  -2   8   2  613.96   59.72
  -2   8   2  604.66   42.15
   1  -8  -2   -3.55    4.96
   1  -8  -2    3.97    1.38
   1  -8  -2   -0.18    4.45
   1  -8  -2    3.17    1.42
  -1   8   2   -3.25   18.00
  -1   8   2   13.72    6.88
  -1   8   2   -1.52    2.94
  -1   8   2  -13.34   12.86
   0  -8  -2  468.56   33.57
   0  -8  -2  463.30   35.24
   0   8   2  504.89   47.66
   0   8   2  453.14   35.19
   0   8   2  438.12   32.46
   0   8   2  439.89   54.30
  -1  -8  -2   33.60    6.13
  -1  -8  -2   26.16    7.08
   1   8   2   14.94    5.44
   1   8   2   23.43   13.01
   1   8   2   27.32   18.51
   1   8   2   19.20    9.14
   1   8   2   18.56    6.54
   1   8   2   37.07    9.00
  -2  -8  -2  920.11   56.79
   2   8   2  900.62   68.63
   2   8   2  962.35   63.15
   2   8   2  882.86   70.86
   2   8   2  905.72   63.60
   2   8   2 1037.00   62.54
   2   8   2 1218.43   86.49
   3   8   2   19.11    6.57
   3   8   2   17.21    5.52
   3   8   2   13.15   15.67
   3   8   2   18.61    6.07
   3   8   2   40.29   12.30
   3   8   2    4.97    6.98
   4   8   2  354.97   41.13
   4   8   2  416.68   30.04
   4   8   2  395.36   34.95
   4   8   2  378.88   29.31
   4   8   2  375.01   33.98
   4   8   2  422.72   29.31
   5   8   2    7.26    4.14
   5   8   2    2.74    3.30
   5   8   2    1.93   10.27
   5   8   2    8.52    8.11
   5   8   2    2.74    1.82
   5   8   2    3.30    3.55
   5   8   2    5.89    6.20
   6   8   2  392.68   29.18
   6   8   2  420.96   28.42
   6   8   2  413.14   31.40
   6   8   2  432.98   29.36
   7   8   2   19.97    6.42
   7   8   2   13.52    4.22
   7   8   2   15.70    5.00
   7   8   2   11.60    4.22
   8   8   2  180.78   14.32
   8   8   2  207.40   18.59
   8   8   2  185.17   17.32
   8   8   2  160.96   13.70
   8   8   2  223.31   21.73
   9   8   2    7.58    5.13
   9   8   2   13.03    6.57
   9   8   2   15.57    3.89
   9   8   2   14.98    7.72
   9   8   2   15.97    3.56
   8  -9  -2   23.95   11.37
   8  -9  -2   36.03   10.50
  -8   9   2  -26.27   33.40
  -8   9   2   19.72   11.19
  -8   9   2   27.44    7.00
  -8   9   2   40.01   64.54
   7  -9  -2  135.05   19.90
   7  -9  -2  148.25   27.09
  -7   9   2  156.41   15.71
  -7   9   2  143.77   22.45
  -7   9   2  233.43   70.67
  -7   9   2  142.69   40.61
   6  -9  -2   27.26   12.25
   6  -9  -2   58.72   11.81
  -6   9   2   23.25   34.22
  -6   9   2   24.08    6.81
  -6   9   2    7.05    7.70
  -6   9   2   16.18   44.86
   5  -9  -2  380.75   29.19
   5  -9  -2  341.50   35.64
  -5   9   2  400.04   53.22
  -5   9   2  318.77   27.24
  -5   9   2  417.04   74.37
  -5   9   2  335.31   32.87
   4  -9  -2   40.67    8.10
   4  -9  -2   16.55   10.81
  -4   9   2    0.99   31.20
  -4   9   2   21.22    9.18
  -4   9   2   14.86    6.13
  -4   9   2    6.84   16.87
   3  -9  -2  208.27   16.48
   3  -9  -2  187.77   27.23
  -3   9   2  158.36   38.06
  -3   9   2  202.76   22.43
  -3   9   2  167.38   16.89
  -3   9   2  234.08   52.75
   2  -9  -2   57.74   11.66
   2  -9  -2   66.71   14.89
   2  -9  -2   48.03    6.35
  -2   9   2   33.55    7.96
  -2   9   2   79.94   31.47
  -2   9   2   48.91   23.21
  -2   9   2   68.85   14.12
   1  -9  -2  366.37   30.31
   1  -9  -2  284.04   26.34
  -1   9   2  297.54   54.20
  -1   9   2  319.86   25.37
  -1   9   2  381.69   43.93
  -1   9   2  305.90   28.51
   0  -9  -2   40.20   10.65
   0  -9  -2   68.49   11.24
   0   9   2   65.58   20.14
   0   9   2   35.08   10.06
   0   9   2   17.64   24.21
   0   9   2   42.83    8.97
  -1  -9  -2  553.85   38.20
  -1  -9  -2  606.52   39.82
   1   9   2  564.76   39.49
   1   9   2  482.45   51.93
   1   9   2  546.62   41.56
   1   9   2  512.15   64.43
   2   9   2   18.89    6.11
   2   9   2   13.27    6.43
   2   9   2   13.33   20.94
   2   9   2    2.14    4.75
   3   9   2  322.61   24.95
   3   9   2  282.78   45.50
   3   9   2  292.23   25.45
   3   9   2  280.27   24.82
   4   9   2    0.71    3.90
   4   9   2   13.87    6.55
   4   9   2  -10.14   10.05
   4   9   2    6.53    5.18
   4   9   2    8.20   19.41
   5   9   2  284.96   24.83
   5   9   2  334.01   31.93
   5   9   2  317.80   25.03
   5   9   2  341.09   36.89
   5   9   2  291.26   25.20
   6   9   2    3.29    4.02
   6   9   2    0.83    3.90
   6   9   2   12.89    5.20
   7   9   2  183.86   16.77
   7   9   2  235.55   20.34
   7   9   2  188.38   15.27
   7   9   2  197.80   17.01
   8   9   2   12.69    4.44
   8   9   2    4.11    3.89
   8   9   2    8.95    4.51
   8   9   2   10.38    5.53
   7 -10  -2    0.36    5.85
   7 -10  -2    1.89    9.46
  -7  10   2  -23.75   56.18
  -7  10   2   20.09    6.63
  -7  10   2   27.84   11.41
  -7  10   2  -12.21   41.48
   6 -10  -2  209.20   20.75
   6 -10  -2  156.34   29.15
  -6  10   2  219.20   58.36
  -6  10   2  193.61   28.24
  -6  10   2  144.75   69.85
  -6  10   2  207.55   19.45
   5 -10  -2    6.34   10.14
   5 -10  -2   24.53    7.19
  -5  10   2  -25.88   37.69
  -5  10   2   46.00   35.51
  -5  10   2   23.92    7.40
  -5  10   2    9.35    7.91
   4 -10  -2  248.22   22.08
   4 -10  -2  293.61   31.97
  -4  10   2  297.77   29.64
  -4  10   2  339.60   72.09
  -4  10   2  267.94   23.77
  -4  10   2  297.27   55.87
   3 -10  -2   -0.50    2.48
   3 -10  -2   -3.68    6.35
  -3  10   2   20.89   30.11
  -3  10   2    3.78    4.61
  -3  10   2    6.90    6.86
   2 -10  -2  240.34   31.45
  -2  10   2  227.50   21.43
  -2  10   2  242.26   25.51
  -2  10   2  268.22   59.68
   1 -10  -2   59.84   14.27
   1 -10  -2   37.62    9.38
  -1  10   2   72.77   36.15
  -1  10   2   27.59    7.73
  -1  10   2   40.15   11.25
   0 -10  -2  414.37   33.76
   0 -10  -2  422.66   31.30
   0  10   2  374.53   48.66
   0  10   2  415.34   34.50
   0  10   2  331.35   61.31
   0  10   2  369.39   30.65
  -1 -10  -2   26.58    7.97
  -1 -10  -2   24.76    6.81
   1  10   2   18.49   29.55
   1  10   2   25.83    8.97
   1  10   2   23.72    7.03
   1  10   2    6.52   17.91
   2  10   2  244.03   49.00
   2  10   2  262.60   24.41
   2  10   2  237.12   22.14
   2  10   2  236.89   36.77
   3  10   2   19.88   15.94
   3  10   2   -9.72   25.91
   3  10   2    5.69    4.13
   3  10   2    8.56    5.98
   4  10   2  287.05   25.21
   4  10   2  291.92   46.25
   4  10   2  301.99   35.91
   4  10   2  272.73   25.00
   5  10   2  -21.48   21.30
   5  10   2    0.04    3.84
   5  10   2   -5.15   14.31
   5  10   2    1.06    4.06
   6  10   2  155.46   19.54
   6  10   2  168.08   16.39
   6  10   2  147.98   18.94
   6  10   2  141.73   18.10
   7  10   2    2.42    4.17
   7  10   2    4.67    4.56
   7  10   2    1.89    4.62
   5 -11  -2  111.66   23.58
  -5  11   2  126.29   75.82
  -5  11   2  152.09   25.21
  -5  11   2  112.51   45.62
  -5  11   2  128.87   17.43
   4 -11  -2   25.43   13.22
  -4  11   2   45.47   41.92
  -4  11   2   22.02   58.00
  -4  11   2   35.99   12.48
  -4  11   2   18.42    7.27
   3 -11  -2  155.27   26.32
  -3  11   2  117.29   16.92
  -3  11   2  169.79   51.25
  -3  11   2  136.74   23.35
  -3  11   2  104.38   58.92
   2 -11  -2   -2.40    7.18
  -2  11   2   11.83    6.40
  -2  11   2    2.99    7.10
  -2  11   2    7.30   29.95
  -2  11   2   42.18   46.43
   1 -11  -2  175.37   24.87
  -1  11   2  213.79   27.76
  -1  11   2  145.61   19.40
  -1  11   2  165.97   40.37
  -1  11   2  156.03   51.77
   0 -11  -2    7.63    6.37
   0 -11  -2   38.19   10.76
   0  11   2  -13.19   23.41
   0  11   2   40.17   11.26
   0  11   2    1.75    4.13
   0  11   2   -1.55   38.93
   1  11   2  115.26   50.46
   1  11   2  185.97   20.15
   1  11   2  225.08   23.73
   1  11   2  309.94   48.46
   2  11   2   13.11    6.37
   2  11   2   22.98    9.16
   2  11   2   39.68   23.47
   2  11   2   53.51   37.77
   3  11   2  222.65   51.00
   3  11   2  152.92   33.08
   3  11   2  155.64   20.25
   3  11   2  211.73   21.69
   4  11   2   24.00    8.35
   4  11   2   35.39    9.53
   4  11   2   -5.78   31.83
   5  11   2  159.95   38.48
   5  11   2  158.18   17.97
   5  11   2  149.06   20.33
   1 -12  -2   28.27   10.88
  -1  12   2   48.23   52.52
  -1  12   2   33.74    9.37
  -1  12   2   31.57   11.82
   0 -12  -2  235.38   22.41
   0  12   2  180.21   22.93
   0  12   2  180.08   26.53
   0  12   2  120.80   58.99
  -1 -12  -2    0.30    2.36
  -1 -12  -2   -1.14    1.92
   1  12   2   11.12   51.02
   1  12   2    2.16    6.79
   1  12   2   22.47    7.84
   2  12   2  165.56   58.82
   3  10  -3   42.95   10.82
   3  10  -3   41.50   12.52
   3  10  -3  -15.18   48.15
   2  10  -3  126.47   58.59
   2  10  -3  143.29   20.31
   2  10  -3  168.64   25.61
   1  10  -3    5.91    6.15
   1  10  -3   32.47   50.34
   1  10  -3    2.79    7.54
  -1 -10   3   11.38    8.90
  -1 -10   3   -0.65    4.03
   0  10  -3  160.09   21.12
   0  10  -3  163.40   65.81
   0  10  -3  139.66   41.32
   0  10  -3  174.07   26.34
   0 -10   3  157.25   24.97
  -1  10  -3   49.35   34.43
  -1  10  -3   25.96   53.41
  -1  10  -3   -1.34    4.88
  -1  10  -3    4.41    8.47
   1 -10   3    3.31    7.42
   1 -10   3    1.11    1.97
  -2  10  -3  120.64   17.47
  -2  10  -3  108.53   37.74
  -2  10  -3  225.19   74.97
  -2  10  -3   95.67   21.01
   2 -10   3  146.77   23.81
  -3  10  -3   13.34   10.81
  -3  10  -3   18.91   63.46
  -3  10  -3    0.38    4.58
  -3  10  -3   25.32   29.43
   3 -10   3   11.74   12.62
   3 -10   3   -6.51    7.06
   3 -10   3    1.34    3.01
   5   9  -3  170.80   23.94
   4   9  -3    3.21    7.43
   4   9  -3   14.86   26.88
   3   9  -3  203.35   42.30
   3   9  -3  184.91   25.82
   2   9  -3   31.16    8.29
   2   9  -3   -8.93   23.50
   2   9  -3   37.11   11.43
  -2  -9   3   23.24    8.60
   1   9  -3  226.19   22.29
   1   9  -3  269.67   27.87
   1   9  -3  228.24   43.35
  -1  -9   3  240.31   24.02
  -1  -9   3  280.52   26.12
   0   9  -3   11.82   22.68
   0   9  -3   12.30    9.02
   0   9  -3   23.56    7.52
   0  -9   3   41.55   12.64
  -1   9  -3  378.68   55.47
  -1   9  -3  301.36   72.30
  -1   9  -3  313.38   26.35
  -1   9  -3  252.77   29.13
   1  -9   3  296.02   31.50
  -2   9  -3   13.90   21.93
  -2   9  -3   37.88   46.50
  -2   9  -3   15.27    6.82
  -2   9  -3   29.49   10.53
   2  -9   3    1.50    9.51
   2  -9   3   19.09    5.93
   2  -9   3    0.41    8.37
  -3   9  -3  229.38   21.62
  -3   9  -3  193.49   68.18
  -3   9  -3  260.79   28.28
   3  -9   3  244.74   40.13
   3  -9   3  247.69   33.81
   3  -9   3  227.51   20.50
  -4   9  -3   27.35   10.38
  -4   9  -3    5.60    4.93
  -4   9  -3   42.35   60.11
   4  -9   3    7.86   10.54
   4  -9   3    8.20    5.43
   4  -9   3    6.06    9.70
  -5   9  -3  102.09   14.78
  -5   9  -3  175.40   72.73
  -5   9  -3  105.66   21.93
   5  -9   3  123.03   26.03
   5  -9   3  139.44   30.49
  -6   9  -3   23.75   50.86
  -6   9  -3  -28.70   48.15
   7   8  -3    9.24    8.17
   7   8  -3   15.76    6.59
   7   8  -3    3.96    5.24
   6   8  -3  161.23   37.37
   6   8  -3  194.28   17.71
   6   8  -3  182.41   19.56
   6   8  -3  211.74   21.91
  -6  -8   3  152.92   30.50
   5   8  -3    1.09    3.58
   5   8  -3   10.59    7.32
   5   8  -3   19.96    8.77
   5   8  -3   35.19   26.90
  -5  -8   3  -13.23   17.61
   4   8  -3  167.95   20.12
   4   8  -3  180.79   36.15
   4   8  -3  200.10   21.21
  -4  -8   3  165.38   32.77
   3   8  -3    1.87    5.58
   3   8  -3    7.71    7.54
   3   8  -3   -1.68   19.15
  -3  -8   3   18.45   18.70
  -3  -8   3    4.47    4.13
  -3  -8   3    4.57    2.61
  -3  -8   3   -2.59    2.99
   2   8  -3  277.86   27.38
   2   8  -3  268.05   42.77
  -2  -8   3  245.13   23.25
  -2  -8   3  283.14   44.20
  -2  -8   3  309.26   25.17
  -2  -8   3  275.81   20.25
   1   8  -3   60.42   14.18
  -1  -8   3   41.57   11.49
  -1  -8   3   73.37    9.45
  -1  -8   3   82.87   25.98
  -1  -8   3   75.18   12.25
   0   8  -3  186.70   19.21
   0   8  -3  216.52   23.80
   0   8  -3  198.52   38.15
   0  -8   3  206.64   21.62
   0  -8   3  238.54   43.00
   0  -8   3  179.35   24.78
   0  -8   3  217.20   17.43
  -1   8  -3   20.32   19.31
  -1   8  -3   10.11    8.49
  -1   8  -3    2.44    4.64
   1  -8   3   27.65    6.00
   1  -8   3    9.91    8.78
   1  -8   3  -14.24   20.88
   1  -8   3    5.13    9.67
  -2   8  -3  306.21   25.77
  -2   8  -3  350.10   32.60
  -2   8  -3  373.56   54.36
   2  -8   3  299.59   24.78
   2  -8   3  315.68   36.61
   2  -8   3  320.60   32.10
  -3   8  -3   29.23   21.83
  -3   8  -3   46.64   13.11
  -3   8  -3   34.07    8.21
  -3   8  -3   92.75   48.85
   3  -8   3   30.40   15.61
   3  -8   3   40.21    8.75
   3  -8   3   23.49   11.56
  -4   8  -3  265.22   51.41
  -4   8  -3  323.06   30.44
  -4   8  -3  257.92   67.54
  -4   8  -3  250.48   22.32
   4  -8   3  271.16   35.05
   4  -8   3  263.88   23.44
   4  -8   3  263.76   35.66
  -5   8  -3   34.93   45.88
  -5   8  -3  -20.36   28.94
  -5   8  -3    8.81    4.94
  -5   8  -3   -2.57    6.46
   5  -8   3    3.58    9.22
   5  -8   3    1.20   10.40
  -6   8  -3  195.09   28.31
  -6   8  -3  155.77   42.90
  -6   8  -3  211.74   68.38
  -6   8  -3  166.16   15.64
   6  -8   3  145.64   30.54
   6  -8   3  119.50   24.83
  -7   8  -3   12.64    5.38
  -7   8  -3    2.59   37.08
  -7   8  -3  -47.92   59.02
  -7   8  -3   23.36   11.96
   7  -8   3    7.39   12.60
   7  -8   3   10.94    9.32
   8   7  -3   16.58    3.15
   8   7  -3   20.73    4.11
   8   7  -3   -8.09   19.21
   8   7  -3   31.82    8.58
   8   7  -3   16.78    6.93
   7   7  -3  232.25   21.27
   7   7  -3  196.60   17.77
   7   7  -3  220.53   21.76
   7   7  -3  180.65   34.60
  -7  -7   3  198.55   29.93
   6   7  -3   58.89   23.37
   6   7  -3   48.54   10.37
   6   7  -3   58.78   11.99
   6   7  -3   32.74    8.87
  -6  -7   3   27.06   17.44
   5   7  -3  246.05   47.71
   5   7  -3  280.83   22.51
   5   7  -3  260.01   24.72
   5   7  -3  258.57   23.97
  -5  -7   3  304.11   35.92
   4   7  -3   36.00    8.99
   4   7  -3    2.61    5.72
   4   7  -3   13.05    4.92
  -4  -7   3   11.21   12.56
  -4  -7   3    8.76    3.90
   3   7  -3  497.52   38.97
   3   7  -3  486.05   39.36
   3   7  -3  520.88   55.31
  -3  -7   3  499.40   33.75
  -3  -7   3  478.28   33.57
  -3  -7   3  500.36   33.78
  -3  -7   3  465.61   49.68
   2   7  -3   38.29   10.76
   2   7  -3   25.73   16.05
   2   7  -3   49.62   11.99
  -2  -7   3   44.83    9.53
  -2  -7   3   43.67    9.85
  -2  -7   3   49.12    7.32
  -2  -7   3    8.70   14.71
   1   7  -3  332.45   29.18
   1   7  -3  295.68   37.64
   1   7  -3  288.51   27.27
  -1  -7   3  304.51   39.76
  -1  -7   3  299.83   25.17
  -1  -7   3  262.99   21.80
  -1  -7   3  287.28   26.31
   0   7  -3   23.03    8.14
   0   7  -3   57.23   21.54
   0  -7   3   23.61    7.75
   0  -7   3   25.27    9.31
   0  -7   3   24.17   12.45
   0  -7   3   31.46    6.85
   0  -7   3   41.46   20.38
  -1   7  -3  122.65   14.19
  -1   7  -3  162.22   22.63
  -1   7  -3  167.62   32.44
   1  -7   3  150.10   17.33
   1  -7   3  164.38   15.09
   1  -7   3  188.50   30.31
   1  -7   3  191.59   24.94
   1  -7   3  193.45   37.43
  -2   7  -3  126.68   29.93
  -2   7  -3   72.99   15.07
  -2   7  -3   81.55   11.55
   2  -7   3   79.31   26.94
   2  -7   3   74.70   16.47
   2  -7   3   93.60   12.51
   2  -7   3   54.35   17.36
  -3   7  -3  577.47   62.65
  -3   7  -3  636.07   42.02
  -3   7  -3  599.32   48.22
   3  -7   3  642.42   50.19
   3  -7   3  614.20   63.48
   3  -7   3  582.75   42.17
   3  -7   3  591.83   54.20
  -4   7  -3   18.62    5.69
  -4   7  -3   25.68   17.22
  -4   7  -3    6.17    7.55
   4  -7   3    7.83   10.93
   4  -7   3   14.95   10.25
   4  -7   3   15.68    6.57
  -5   7  -3  270.45   63.54
  -5   7  -3  223.48   25.65
  -5   7  -3  228.72   18.96
  -5   7  -3  215.12   42.01
   5  -7   3  243.28   31.27
   5  -7   3  182.33   29.20
  -6   7  -3   -0.07    6.80
  -6   7  -3   -0.42    2.97
  -6   7  -3  -17.83   41.93
  -6   7  -3   13.11   26.10
   6  -7   3   -3.73    8.04
   6  -7   3    3.04    8.91
  -7   7  -3  143.78   65.96
  -7   7  -3  126.84   12.43
  -7   7  -3   83.34   35.60
  -7   7  -3  153.54   23.87
   7  -7   3  144.14   26.44
   7  -7   3  108.03   26.83
  -8   7  -3   18.13    4.74
  -8   7  -3   55.19   55.45
  -8   7  -3   13.70   10.33
  -8   7  -3  -13.84   34.97
   8  -7   3   18.23   12.58
   8  -7   3   19.20   15.02
   9   6  -3   44.00   10.07
   9   6  -3   29.77   10.02
   9   6  -3   35.42   12.31
  -9  -6   3   23.51    9.91
   8   6  -3  198.20   21.29
   8   6  -3  225.19   31.64
   8   6  -3  240.95   21.07
  -8  -6   3  135.34   22.60
   7   6  -3   37.69    7.48
   7   6  -3   46.44    5.93
   7   6  -3   56.26   11.60
   7   6  -3   27.95   17.80
   7   6  -3   45.75    7.22
   7   6  -3   55.32   10.97
  -7  -6   3   53.47   15.54
   6   6  -3  313.94   26.52
   6   6  -3  294.03   24.12
   6   6  -3  309.58   26.92
   6   6  -3  312.08   23.60
   6   6  -3  307.14   39.69
  -6  -6   3  380.49   36.10
   5   6  -3   54.50    9.96
   5   6  -3   37.82    9.96
   5   6  -3   37.08    7.81
   5   6  -3   38.08    8.84
  -5  -6   3   21.02   13.31
  -5  -6   3   49.02    8.71
   4   6  -3  589.48   44.36
   4   6  -3  673.85   42.94
   4   6  -3  657.56   45.69
   4   6  -3  633.63   42.65
  -4  -6   3  554.44   41.81
  -4  -6   3  652.84   55.06
   3   6  -3   36.93   17.23
   3   6  -3   38.86    9.93
   3   6  -3   35.45    7.00
   3   6  -3   47.37   10.84
   3   6  -3   26.35    6.81
  -3  -6   3   17.83   12.97
  -3  -6   3   24.59    6.30
  -3  -6   3   21.80    5.67
  -3  -6   3   30.38    6.39
   2   6  -3  693.08   55.71
   2   6  -3  881.09   68.31
   2   6  -3  833.50   56.23
   2   6  -3  794.43   53.46
  -2  -6   3  842.75   53.98
  -2  -6   3  802.40   51.63
  -2  -6   3  778.22   53.42
  -2  -6   3  796.48   67.18
   1   6  -3    6.14    4.63
   1   6  -3   -3.63    5.38
   1   6  -3    4.43    5.66
   1   6  -3    8.93   11.56
  -1  -6   3    2.69   10.87
  -1  -6   3    2.86    5.18
  -1  -6   3    8.63    8.04
  -1  -6   3    3.14    5.45
  -1  -6   3    4.56    3.62
   0   6  -3  561.96   46.47
   0   6  -3  662.11   46.59
   0   6  -3  537.40   43.06
   0   6  -3  609.48   55.82
   0  -6   3  606.47   45.36
   0  -6   3  690.40   51.38
   0  -6   3  716.38   59.76
   0  -6   3  631.08   41.67
   0  -6   3  608.73   44.47
  -1   6  -3    4.11    6.35
  -1   6  -3   -3.51    4.24
  -1   6  -3    2.49    9.61
   1  -6   3   -2.22    5.21
   1  -6   3    9.47    5.97
   1  -6   3    0.42    9.85
   1  -6   3    0.69    6.68
   1  -6   3   -1.19    3.41
  -2   6  -3  684.22   48.87
  -2   6  -3  561.62   42.17
  -2   6  -3  599.42   58.69
   2  -6   3  666.53   53.76
   2  -6   3  624.09   62.22
   2  -6   3  652.42   46.87
   2  -6   3  660.34   43.30
   2  -6   3  679.10   49.38
  -3   6  -3   12.89    4.82
  -3   6  -3   13.80   16.37
  -3   6  -3   13.08    7.70
   3  -6   3   13.14   16.21
   3  -6   3    7.60    8.00
   3  -6   3   13.40    9.20
   3  -6   3   31.76    7.18
  -4   6  -3  304.56   29.52
  -4   6  -3  327.09   23.77
  -4   6  -3  297.66   45.60
   4  -6   3  337.31   35.69
   4  -6   3  348.53   32.05
   4  -6   3  254.19   43.39
  -5   6  -3   34.60   21.29
  -5   6  -3   15.46    8.60
  -5   6  -3   -9.54   30.14
  -5   6  -3   13.30    4.56
   5  -6   3   10.13    7.43
   5  -6   3   23.91   13.65
  -6   6  -3  306.02   30.99
  -6   6  -3  292.09   66.32
  -6   6  -3  329.76   23.68
  -6   6  -3  414.79   58.12
   6  -6   3  317.33   33.42
   6  -6   3  322.32   37.93
  -7   6  -3  -14.77   25.64
  -7   6  -3   -0.65    5.05
  -7   6  -3    5.48    3.38
  -7   6  -3   18.35   30.81
   7  -6   3   -2.04    8.76
   7  -6   3   -7.64    5.47
  -8   6  -3  237.46   26.28
  -8   6  -3  345.38   75.74
   8  -6   3  221.65   37.94
   8  -6   3  276.99   36.70
  -9   6  -3   -0.93    0.82
  -9   6  -3    3.92    7.46
  -9   6  -3   26.06   39.88
  -9   6  -3  -14.26   33.22
   9  -6   3    5.76    9.10
   9  -6   3    1.65    9.41
  10   5  -3   27.94    8.97
  10   5  -3   19.43   10.54
   9   5  -3  272.62   20.30
   9   5  -3  216.30   30.85
   9   5  -3  247.88   23.80
   9   5  -3  271.43   26.64
  -9  -5   3  258.48   25.52
   8   5  -3   24.47   17.25
   8   5  -3   26.28    6.26
   8   5  -3   32.87    8.81
   8   5  -3   21.20    8.70
  -8  -5   3   30.40   11.84
   7   5  -3  246.25   21.23
   7   5  -3  241.23   32.28
   7   5  -3  212.82   13.82
   7   5  -3  205.76   20.97
   7   5  -3  200.62   14.02
  -7  -5   3  179.80   24.62
   6   5  -3   27.95    8.10
   6   5  -3   40.69    9.30
   6   5  -3   35.10    6.82
   6   5  -3   28.97    6.42
   6   5  -3   30.20   16.74
  -6  -5   3   34.32   13.29
   5   5  -3  331.25   38.50
   5   5  -3  362.96   28.53
   5   5  -3  363.37   26.15
   5   5  -3  390.03   29.48
   5   5  -3  361.46   26.70
  -5  -5   3  364.47   35.53
  -5  -5   3  355.47   27.67
   4   5  -3   79.87   13.20
   4   5  -3   93.51    9.45
   4   5  -3   74.38   12.26
   4   5  -3   78.23   18.96
   4   5  -3   73.18   11.39
  -4  -5   3   71.48   16.95
  -4  -5   3   58.81   10.02
   3   5  -3  504.68   36.52
   3   5  -3  538.01   48.38
   3   5  -3  577.12   37.20
   3   5  -3  527.93   38.72
   3   5  -3  554.08   39.26
  -3  -5   3  505.27   35.64
  -3  -5   3  502.89   35.66
  -3  -5   3  539.00   36.65
  -3  -5   3  606.76   48.17
   2   5  -3   12.64    4.71
   2   5  -3   15.19    4.57
   2   5  -3    0.39    8.75
   2   5  -3   13.56    6.25
   2   5  -3   23.28    7.34
  -2  -5   3   11.66    5.64
  -2  -5   3   -1.36    3.45
  -2  -5   3    5.44    3.50
  -2  -5   3    2.85    8.56
   1   5  -3 1192.08   83.69
   1   5  -3 1115.69   73.55
   1   5  -3 1028.69   73.89
   1   5  -3 1038.11   71.16
  -1  -5   3 1163.05   70.35
  -1  -5   3 1164.71   84.21
  -1  -5   3 1127.69   72.55
  -1  -5   3 1165.50   76.83
  -1  -5   3 1112.88   72.74
   0   5  -3   21.90    7.83
   0   5  -3   20.09   11.17
   0   5  -3   29.00    7.51
   0   5  -3   31.11    9.85
   0  -5   3   22.82    7.76
   0  -5   3   28.26    6.44
   0  -5   3   28.05   12.47
   0  -5   3   37.71    8.88
   0  -5   3   23.47    9.88
  -1   5  -3 1320.44   92.96
  -1   5  -3 1270.38   81.79
  -1   5  -3 1133.51   83.02
  -1   5  -3 1161.34   79.40
   1  -5   3 1253.40   77.77
   1  -5   3 1214.97   81.74
   1  -5   3 1351.02   86.97
   1  -5   3 1257.38   80.70
   1  -5   3 1286.46   94.46
  -2   5  -3    6.26    6.57
  -2   5  -3    3.14    8.89
  -2   5  -3    4.66    5.61
  -2   5  -3    7.95    4.55
   2  -5   3   17.88    9.87
   2  -5   3    7.29    4.19
   2  -5   3   13.42    7.26
   2  -5   3    6.11    4.55
   2  -5   3    4.23    9.34
  -3   5  -3  624.48   51.22
  -3   5  -3  753.85   62.18
  -3   5  -3  694.43   43.30
  -3   5  -3  641.62   46.83
  -3   5  -3  668.33   48.79
   3  -5   3  641.88   49.50
   3  -5   3  683.21   47.97
   3  -5   3  667.87   53.96
   3  -5   3  621.75   60.95
  -4   5  -3   10.23    3.64
  -4   5  -3    9.90    6.25
  -4   5  -3   17.12   15.19
   4  -5   3   -4.46   12.43
   4  -5   3    7.97    9.51
   4  -5   3    3.16    5.13
  -5   5  -3  556.14   54.08
  -5   5  -3  457.23   30.14
  -5   5  -3  500.65   37.51
   5  -5   3  406.10   37.92
   5  -5   3  373.29   40.43
  -6   5  -3   16.94    4.20
  -6   5  -3   14.91   18.89
  -6   5  -3  -20.38   27.60
  -6   5  -3   20.43    9.18
   6  -5   3   16.92   12.05
   6  -5   3   12.00    9.20
  -7   5  -3  306.35   28.35
  -7   5  -3  237.77   58.28
  -7   5  -3  332.04   21.08
  -7   5  -3  247.43   47.28
   7  -5   3  270.44   30.33
   7  -5   3  279.29   34.09
  -8   5  -3    5.83    6.81
  -8   5  -3    4.93    2.55
  -8   5  -3   23.77   39.82
  -8   5  -3    9.73   22.25
   8  -5   3    0.44    7.45
   8  -5   3   -2.66    9.77
  -9   5  -3  194.88   24.98
  -9   5  -3  118.15   56.51
   9  -5   3  196.84   29.72
   9  -5   3  168.76   32.51
 -10   5  -3    7.36   29.46
 -10   5  -3   22.51   54.14
 -10   5  -3    9.24    8.74
  10  -5   3   14.24   11.30
  10  -5   3    6.52   12.60
  10  -5   3   25.60    9.40
  11   4  -3    8.93    8.62
  11   4  -3   10.92    8.12
  10   4  -3  196.55   20.18
  10   4  -3  157.08   17.48
  10   4  -3  220.72   27.87
 -10  -4   3  184.40   21.96
   9   4  -3   27.06    6.05
   9   4  -3    8.97    7.43
   9   4  -3    2.16   16.27
   9   4  -3   34.40    9.07
  -9  -4   3    8.13   10.42
   8   4  -3  266.43   36.65
   8   4  -3  292.69   25.75
   8   4  -3  328.66   22.86
   8   4  -3  309.48   28.40
  -8  -4   3  317.67   30.71
   7   4  -3    4.04    5.31
   7   4  -3   18.03   13.37
   7   4  -3   10.76    6.86
  -7  -4   3   19.47   10.28
   6   4  -3  760.96   63.27
   6   4  -3  852.54   47.01
   6   4  -3  851.40   50.08
   6   4  -3  808.01   53.18
   6   4  -3  722.94   47.13
   6   4  -3  725.51   53.57
  -6  -4   3  769.04   53.46
  -6  -4   3  709.51   57.48
   5   4  -3   45.33    7.15
   5   4  -3   36.90   12.92
   5   4  -3   57.38   10.68
   5   4  -3   56.44    8.07
   5   4  -3   62.12   10.80
  -5  -4   3   52.30   13.93
  -5  -4   3   55.02    9.41
   4   4  -3  783.28   51.30
   4   4  -3  795.18   49.18
   4   4  -3  773.92   61.54
   4   4  -3  692.05   49.07
   4   4  -3  796.95   52.00
  -4  -4   3  738.07   50.65
  -4  -4   3  834.00   58.95
   3   4  -3   11.67   10.10
   3   4  -3   21.76    5.98
   3   4  -3   14.65    5.44
   3   4  -3   24.02    5.31
   3   4  -3   12.52    5.18
  -3  -4   3    8.93    8.04
  -3  -4   3   11.60    4.32
  -3  -4   3    5.13    3.69
  -3  -4   3   12.45    4.17
   2   4  -3 1140.40   68.78
   2   4  -3 1173.70   78.72
   2   4  -3 1025.04   67.70
   2   4  -3 1038.22   65.98
   2   4  -3 1058.28   66.09
  -2  -4   3  950.93   66.50
  -2  -4   3  946.93   74.50
  -2  -4   3  979.00   66.14
  -2  -4   3 1193.27   70.00
  -2  -4   3 1035.83   66.03
   1   4  -3   16.45    4.93
   1   4  -3   14.76    6.31
   1   4  -3    8.41    4.35
   1   4  -3    5.06    7.95
   1   4  -3    4.72    3.29
  -1  -4   3   11.07    4.56
  -1  -4   3    5.52    4.25
  -1  -4   3    9.30    8.26
  -1  -4   3   12.94    4.33
  -1  -4   3   12.99    6.22
   0   4  -3 1295.24   84.73
   0   4  -3 1343.33   94.76
   0   4  -3 1348.62   87.76
   0   4  -3 1388.96   86.87
   0  -4   3 1411.85   84.20
   0  -4   3 1300.40   85.74
   0  -4   3 1489.85   90.38
   0  -4   3 1323.07   86.20
   0  -4   3 1354.99   96.05
  -1   4  -3  133.01   19.61
  -1   4  -3  159.36   24.83
  -1   4  -3  141.26   14.97
  -1   4  -3  110.37   12.54
   1  -4   3  137.48   20.51
   1  -4   3  135.71   14.97
   1  -4   3  151.96   14.37
   1  -4   3  124.76   23.58
   1  -4   3  145.43   12.84
  -2   4  -3  790.06   51.38
  -2   4  -3  751.90   54.86
  -2   4  -3  775.01   52.64
  -2   4  -3  765.36   61.68
   2  -4   3  793.40   53.36
   2  -4   3  793.42   56.86
   2  -4   3  695.53   61.67
   2  -4   3  726.13   51.50
   2  -4   3  771.07   49.82
  -3   4  -3   -1.55    4.04
  -3   4  -3    0.71    6.15
  -3   4  -3   -1.81    2.32
  -3   4  -3    1.87    8.36
   3  -4   3   -0.47    4.91
   3  -4   3   14.39    7.45
   3  -4   3    1.89    3.36
   3  -4   3    3.92    8.18
  -4   4  -3  800.23   53.91
  -4   4  -3  796.53   64.79
  -4   4  -3  795.82   47.82
  -4   4  -3  722.68   56.37
  -4   4  -3  755.50   52.04
   4  -4   3  740.04   52.66
   4  -4   3  758.42   66.44
   4  -4   3  726.31   58.47
   4  -4   3  772.08   55.05
  -5   4  -3    7.92   12.91
  -5   4  -3    4.31    2.38
  -5   4  -3    4.20    5.22
  -5   4  -3    9.56    7.86
  -5   4  -3   -2.25    4.18
   5  -4   3    7.72    5.25
   5  -4   3    2.04    6.19
   5  -4   3   -1.05    5.10
   5  -4   3   -2.28   12.57
  -6   4  -3  848.99   59.76
  -6   4  -3  926.57   62.11
  -6   4  -3 1195.28   99.62
  -6   4  -3  895.30   54.39
  -6   4  -3  873.43   75.32
   6  -4   3  840.75   63.82
   6  -4   3  835.40   68.29
  -7   4  -3   82.53   22.91
  -7   4  -3  103.88   40.63
  -7   4  -3  121.30   15.91
  -7   4  -3   72.39   14.19
  -7   4  -3   69.91    6.60
   7  -4   3   77.37   16.05
   7  -4   3   55.63   18.36
  -8   4  -3  229.56   56.71
  -8   4  -3  354.06   51.25
  -8   4  -3  308.79   19.45
  -8   4  -3  290.56   26.69
   8  -4   3  273.42   30.26
   8  -4   3  325.91   35.95
  -9   4  -3   -5.79   23.23
  -9   4  -3  -10.77   30.62
  -9   4  -3   26.21    9.03
   9  -4   3   26.09   10.64
   9  -4   3   21.07   13.80
 -10   4  -3  218.81   60.74
 -10   4  -3  176.49   19.53
  10  -4   3  181.57   33.06
  10  -4   3  187.38   29.08
 -11   4  -3   10.41    7.09
  11  -4   3    4.89   11.74
  11  -4   3   25.63   10.23
  11  -4   3    5.69    7.36
  11   3  -3  155.90   20.74
  11   3  -3  145.05   23.49
 -11  -3   3  121.51   21.45
 -11  -3   3  106.09   21.17
  10   3  -3   41.59   12.17
  10   3  -3   28.33    9.69
  10   3  -3   17.16    6.33
  10   3  -3   56.67   21.93
 -10  -3   3   40.36   14.94
   9   3  -3   93.58   10.24
   9   3  -3   87.90   16.67
   9   3  -3   85.65   14.73
   9   3  -3   94.03   24.01
  -9  -3   3   93.83   18.78
   8   3  -3   37.06   10.25
   8   3  -3   13.60   15.47
   8   3  -3   27.23    5.73
   8   3  -3   23.31    7.63
  -8  -3   3   23.93   11.76
   7   3  -3  613.17   43.28
   7   3  -3  514.90   40.19
   7   3  -3  606.07   37.76
   7   3  -3  608.07   53.19
  -7  -3   3  532.97   46.21
   6   3  -3  101.56   21.07
   6   3  -3  126.26   16.86
   6   3  -3  107.03   12.25
  -6  -3   3  128.01   16.46
  -6  -3   3   82.40   17.24
   5   3  -3  698.14   44.66
   5   3  -3  727.96   47.33
   5   3  -3  688.16   58.63
   5   3  -3  826.12   50.80
   5   3  -3  831.39   51.79
  -5  -3   3  726.44   50.72
  -5  -3   3  829.41   57.44
   4   3  -3  105.21   10.14
   4   3  -3  140.79   13.69
   4   3  -3  149.39   13.89
   4   3  -3   97.11   19.43
   4   3  -3  137.89   11.32
  -4  -3   3  115.98   18.81
  -4  -3   3  134.01   13.12
  -4  -3   3  144.53    9.73
  -4  -3   3  141.64    9.72
   3   3  -3  397.08   28.23
   3   3  -3  364.98   25.67
   3   3  -3  399.17   36.21
   3   3  -3  372.71   27.27
   3   3  -3  371.29   25.60
  -3  -3   3  351.32   25.55
  -3  -3   3  346.76   26.64
  -3  -3   3  377.40   25.51
  -3  -3   3  420.41   34.35
   2   3  -3  143.53   12.96
   2   3  -3  151.55   23.06
   2   3  -3  171.66   14.32
   2   3  -3  192.24   15.66
   2   3  -3  140.71   13.87
  -2  -3   3  142.95   18.73
  -2  -3   3  174.00   14.03
  -2  -3   3  153.30   13.53
  -2  -3   3  151.90   14.18
  -2  -3   3  158.82   14.70
   1   3  -3 1081.97   70.50
   1   3  -3 1228.96   70.94
   1   3  -3 1083.22   72.19
   1   3  -3 1006.11   78.42
   1   3  -3 1270.07   72.90
  -1  -3   3 1302.18   74.36
  -1  -3   3 1107.66   71.33
  -1  -3   3 1069.30   78.70
  -1  -3   3 1124.95   70.89
  -1  -3   3 1078.33   71.75
   0   3  -3   90.78   10.07
   0   3  -3  109.05   14.19
   0   3  -3   99.25   12.36
   0   3  -3  102.72   18.20
   0  -3   3   88.37   16.88
   0  -3   3  101.20   11.18
   0  -3   3  104.39   10.43
   0  -3   3   96.92   11.04
   0  -3   3  101.35   13.02
  -1   3  -3 1282.60   87.56
  -1   3  -3 1381.81   85.22
  -1   3  -3 1311.50   93.91
  -1   3  -3 1448.82   87.02
   1  -3   3 1310.34   94.38
   1  -3   3 1331.56   89.14
   1  -3   3 1410.48   86.37
   1  -3   3 1482.52   84.89
   1  -3   3 1417.74   86.79
  -2   3  -3  111.40   14.31
  -2   3  -3  148.47   24.04
  -2   3  -3  147.32   14.33
  -2   3  -3  136.92   13.06
   2  -3   3  134.18   13.33
   2  -3   3  118.15   18.78
   2  -3   3  130.34   14.08
   2  -3   3  130.06   22.33
  -3   3  -3  155.83   26.39
  -3   3  -3  184.88   17.62
  -3   3  -3  254.17   22.21
  -3   3  -3  190.54   16.72
   3  -3   3  234.97   23.06
   3  -3   3  122.64   24.23
   3  -3   3  240.42   19.77
   3  -3   3  140.10   16.05
  -4   3  -3   39.18    5.05
  -4   3  -3   34.83    9.80
  -4   3  -3   24.04    7.22
  -4   3  -3   48.55    8.61
  -4   3  -3   51.51   14.88
   4  -3   3   46.40    9.06
   4  -3   3   34.05   14.35
   4  -3   3   34.06   12.15
   4  -3   3   36.98    9.00
  -5   3  -3  711.46   58.66
  -5   3  -3  629.62   40.43
  -5   3  -3  629.66   44.94
  -5   3  -3  712.09   47.04
  -5   3  -3  628.11   49.88
   5  -3   3  739.10   59.94
   5  -3   3  615.29   51.69
   5  -3   3  685.76   48.48
   5  -3   3  678.61   46.45
  -6   3  -3    4.25    4.85
  -6   3  -3    4.53    7.21
  -6   3  -3   -3.09   11.63
  -6   3  -3    0.81    1.33
  -6   3  -3    8.73    5.27
   6  -3   3   -0.08    7.55
   6  -3   3    1.32    4.88
   6  -3   3    7.99    4.90
  -7   3  -3  632.44   46.86
  -7   3  -3  744.40   77.43
  -7   3  -3  676.41   46.19
  -7   3  -3  730.60   63.67
  -7   3  -3  664.94   40.20
   7  -3   3  696.86   51.18
   7  -3   3  629.73   55.36
  -8   3  -3    1.76   25.09
  -8   3  -3   16.62   18.02
  -8   3  -3   28.02    8.09
  -8   3  -3   26.29    6.85
   8  -3   3   33.57   14.40
   8  -3   3   25.42   10.11
  -9   3  -3  198.42   18.85
  -9   3  -3  241.43   56.86
   9  -3   3  204.70   28.68
   9  -3   3  207.08   34.32
 -10   3  -3   10.81    6.20
 -10   3  -3   29.80   34.06
 -10   3  -3    8.57    6.00
 -10   3  -3   23.93   24.30
  10  -3   3    7.12   11.26
  10  -3   3   10.60    9.07
 -11   3  -3   24.23   44.60
 -11   3  -3  -11.54   29.20
  11  -3   3  134.34   22.49
  11   2  -3   30.09    9.67
  11   2  -3   19.44   10.47
 -11  -2   3   24.86   19.24
  10   2  -3  129.90   19.45
  10   2  -3  135.96   21.95
  10   2  -3  160.54   33.38
 -10  -2   3  111.09   25.54
   9   2  -3   21.00    6.45
   9   2  -3   36.66    7.51
   9   2  -3   21.89   17.73
   9   2  -3   23.65    8.31
   9   2  -3   32.46   10.18
  -9  -2   3   17.66   15.39
   8   2  -3  493.13   32.32
   8   2  -3  529.68   36.41
   8   2  -3  452.63   48.36
   8   2  -3  470.12   38.12
   8   2  -3  400.57   32.27
  -8  -2   3  479.90   44.57
   7   2  -3  177.75   16.76
   7   2  -3  156.37   14.41
   7   2  -3  172.09   18.16
   7   2  -3  141.48   13.26
   7   2  -3  164.48   28.46
  -7  -2   3  196.77   25.39
   6   2  -3  961.29   72.78
   6   2  -3  919.16   58.00
   6   2  -3  912.86   59.31
   6   2  -3  979.71   61.38
   6   2  -3  895.54   62.34
  -6  -2   3  914.52   62.46
  -6  -2   3  981.67   69.86
   5   2  -3   66.19    7.24
   5   2  -3   75.95   11.09
   5   2  -3   59.28   15.64
   5   2  -3   70.52   11.47
  -5  -2   3   74.98   11.49
  -5  -2   3   88.15   16.59
   4   2  -3 1462.77   92.28
   4   2  -3 1460.60  100.93
  -4  -2   3 1472.17   92.07
  -4  -2   3 1530.31   99.41
   3   2  -3   30.13   10.63
   3   2  -3   43.50    7.98
   3   2  -3   39.83    7.28
  -3  -2   3   31.57    5.88
  -3  -2   3   50.14   11.37
  -3  -2   3   26.07    5.94
   2   2  -3 1192.68   82.75
  -2  -2   3 1190.69   74.30
  -2  -2   3 1221.90   81.11
  -2  -2   3 1191.98   74.22
   1   2  -3   98.67    9.03
   1   2  -3  102.10    9.84
   1   2  -3  110.11   18.60
   1   2  -3   74.89    9.32
   1   2  -3  116.22   10.72
  -1  -2   3   95.73   10.29
  -1  -2   3   83.98    9.13
  -1  -2   3   84.86   14.80
  -1  -2   3  116.60   10.35
  -1  -2   3   88.43    9.96
   0   2  -3 1671.49  109.44
   0  -2   3 1681.64  109.08
  -1   2  -3    0.89    3.77
  -1   2  -3    4.03    3.24
  -1   2  -3    3.44    4.15
  -1   2  -3    0.62    3.25
   1  -2   3    1.41    2.66
   1  -2   3    2.06    4.85
   1  -2   3   10.80    4.40
   1  -2   3    0.77    4.36
   1  -2   3    8.30    3.83
  -2   2  -3 2212.83  134.66
  -2   2  -3 1899.58  127.49
   2  -2   3 2159.08  134.83
  -3   2  -3   88.16   14.37
  -3   2  -3   73.69    8.42
  -3   2  -3   67.26   10.40
  -3   2  -3  115.36   19.37
   3  -2   3   74.00   14.20
   3  -2   3   80.16   16.43
   3  -2   3   66.94   10.87
   3  -2   3   96.17   12.50
  -4   2  -3 1150.54   71.55
  -4   2  -3 1146.52   81.91
  -4   2  -3 1083.51   72.39
  -4   2  -3 1169.03   76.35
   4  -2   3 1094.12   77.27
   4  -2   3 1178.32   73.90
   4  -2   3 1191.98   83.11
   4  -2   3 1139.97   72.70
  -5   2  -3   27.53   11.34
  -5   2  -3   25.50    6.83
  -5   2  -3   15.60    2.30
  -5   2  -3    9.15    7.12
  -5   2  -3   23.97    6.28
   5  -2   3   16.28    5.64
   5  -2   3   17.07    8.88
   5  -2   3   29.61    7.59
   5  -2   3   17.57   10.12
  -6   2  -3  661.23   42.81
  -6   2  -3  599.90   53.51
  -6   2  -3  597.98   47.19
  -6   2  -3  573.51   41.07
   6  -2   3  609.79   49.59
   6  -2   3  628.47   43.32
   6  -2   3  649.44   45.30
  -7   2  -3    4.80    4.42
  -7   2  -3   22.38   19.25
  -7   2  -3    7.95    7.17
  -7   2  -3    1.44    4.46
   7  -2   3    6.64    4.93
   7  -2   3    3.56    5.83
   7  -2   3    4.08    9.13
  -8   2  -3  493.77   58.62
  -8   2  -3  451.58   31.10
  -8   2  -3  414.99   30.16
  -8   2  -3  412.20   45.24
   8  -2   3  463.62   36.29
   8  -2   3  329.04   38.81
  -9   2  -3    3.51   25.92
  -9   2  -3   46.17   20.49
  -9   2  -3    1.26    4.29
  -9   2  -3   -2.34    3.70
   9  -2   3   10.91    7.61
   9  -2   3   -3.78    8.39
 -10   2  -3  228.84   51.11
 -10   2  -3  183.63   36.99
  10  -2   3  230.91   34.79
  10  -2   3  175.87   25.16
 -11   2  -3    0.24    2.07
 -11   2  -3   28.85   36.18
 -11   2  -3  -11.93   22.44
  11  -2   3    2.88    9.72
  11  -2   3    5.62    7.75
  11  -2   3   -4.20    5.52
  12   1  -3    5.90    8.46
  12   1  -3   11.89   10.10
 -12  -1   3  -10.34   22.47
  11   1  -3  109.15   18.83
  11   1  -3   99.32   19.27
 -11  -1   3   96.53   27.24
  10   1  -3   42.42   12.49
  10   1  -3   35.77   10.29
  10   1  -3   26.51    5.98
  10   1  -3  -18.97   22.87
 -10  -1   3   33.45   21.18
   9   1  -3  455.64   36.63
   9   1  -3  357.70   60.34
   9   1  -3  403.94   29.95
   9   1  -3  390.16   28.53
   9   1  -3  402.61   32.96
  -9  -1   3  422.18   45.79
   8   1  -3  145.57   13.32
   8   1  -3  142.65   16.26
   8   1  -3  172.51   22.06
   8   1  -3  144.26   13.06
   8   1  -3  156.09   29.58
  -8  -1   3  127.04   25.53
   7   1  -3  720.85   46.75
   7   1  -3  744.73   50.12
   7   1  -3  737.58   63.60
   7   1  -3  743.21   52.08
   7   1  -3  677.70   46.76
  -7  -1   3  763.71   60.93
   6   1  -3  183.22   14.90
   6   1  -3  231.71   29.27
   6   1  -3  188.13   15.45
   6   1  -3  214.46   19.47
   6   1  -3  194.01   17.66
  -6  -1   3  160.96   17.49
  -6  -1   3  214.06   26.64
   5   1  -3 1387.67   99.26
   5   1  -3 1421.99   86.44
   5   1  -3 1389.30   88.26
   5   1  -3 1297.32   89.07
  -5  -1   3 1558.50   98.96
  -5  -1   3 1416.04   84.87
  -5  -1   3 1476.46   89.84
   4   1  -3  390.55   24.98
   4   1  -3  348.86   33.95
   4   1  -3  373.00   27.06
   4   1  -3  382.71   26.48
   4   1  -3  336.96   23.79
  -4  -1   3  352.80   24.26
  -4  -1   3  364.17   23.45
  -4  -1   3  338.19   32.83
  -4  -1   3  342.48   26.48
   3   1  -3 2221.71  147.32
  -3  -1   3 2396.92  147.06
   2   1  -3   -0.28    2.97
   2   1  -3    5.09    3.56
   2   1  -3   12.60    3.30
   2   1  -3    4.22    6.11
  -2  -1   3    3.34    4.69
  -2  -1   3   12.48    3.22
  -2  -1   3    4.00    2.99
  -2  -1   3    7.93    2.52
  -2  -1   3    6.51    3.50
   1   1  -3 3574.22  230.20
  -1  -1   3 3982.59  230.10
   0   1  -3   16.97    4.62
   0   1  -3   30.25    4.93
   0   1  -3   15.01    4.03
   0   1  -3   11.31    6.07
   0   1  -3   33.14    6.07
   0  -1   3   24.69    4.53
   0  -1   3   23.89    7.38
   0  -1   3   29.14    6.00
   0  -1   3   19.39    4.99
   0  -1   3   24.34    5.89
  -1   1  -3 3700.54  232.21
   1  -1   3 3962.34  232.66
  -2   1  -3   75.21   10.31
  -2   1  -3   58.94   12.44
  -2   1  -3   77.90    7.80
  -2   1  -3   92.22   10.61
   2  -1   3   84.26   10.51
   2  -1   3   72.80    8.28
   2  -1   3   55.44   12.00
   2  -1   3   68.75    7.82
  -3   1  -3 2192.15  142.04
   3  -1   3 2300.95  143.04
  -4   1  -3  227.36   24.99
  -4   1  -3  223.39   14.78
  -4   1  -3  273.10   19.40
   4  -1   3  306.82   20.45
   4  -1   3  230.90   25.26
   4  -1   3  234.68   18.99
  -5   1  -3 1260.54   79.16
  -5   1  -3 1253.34   73.48
  -5   1  -3 1107.79   73.84
   5  -1   3 1106.35   74.63
   5  -1   3 1226.78   80.49
   5  -1   3 1197.92   84.78
   5  -1   3 1206.53   75.85
  -6   1  -3   24.04   11.54
  -6   1  -3   47.79    7.90
  -6   1  -3   56.55   12.07
  -6   1  -3   44.68    7.37
   6  -1   3   43.62    9.34
   6  -1   3   47.26   12.52
   6  -1   3   47.83    9.02
  -7   1  -3  392.33   39.83
  -7   1  -3  396.16   27.40
  -7   1  -3  374.01   33.57
  -7   1  -3  399.19   49.36
  -7   1  -3  415.20   28.10
   7  -1   3  438.33   37.44
   7  -1   3  403.35   30.20
   7  -1   3  381.96   31.26
  -8   1  -3   14.39    4.77
  -8   1  -3   13.15   18.20
  -8   1  -3   10.50    4.23
  -8   1  -3   32.04   14.10
  -8   1  -3   26.22    8.32
   8  -1   3   18.12    6.01
   8  -1   3    5.19    9.73
   8  -1   3   17.57    7.85
  -9   1  -3  719.88   57.97
  -9   1  -3  563.93   65.79
   9  -1   3  565.23   44.48
   9  -1   3  521.89   49.51
 -10   1  -3   41.47   28.21
 -10   1  -3    5.25   16.95
  10  -1   3   18.47    8.21
  10  -1   3   16.54   12.08
 -11   1  -3  158.98   45.29
 -11   1  -3  192.74   36.32
  11  -1   3  142.57   22.85
  11  -1   3  170.03   30.38
  11  -1   3  205.59   29.37
 -12   1  -3  -43.92   25.72
  12  -1   3   34.20   14.25
  12  -1   3    1.23    7.30
  12  -1   3   16.21   10.55
  12   0  -3  164.84   24.68
  12   0  -3  123.68   23.47
 -12   0   3  121.49   33.27
  11   0  -3    9.53    7.54
  11   0  -3    7.15    7.91
  11   0  -3    5.04    3.48
 -11   0   3   13.22   25.38
  10   0  -3  243.40   18.04
  10   0  -3  212.36   23.12
  10   0  -3  250.37   31.01
 -10   0   3  173.71   36.41
   9   0  -3    1.05    4.55
   9   0  -3   16.94    4.38
   9   0  -3    2.49    6.20
   9   0  -3   15.76    6.01
  -9   0   3   30.25   20.42
   8   0  -3  529.97   35.35
   8   0  -3  546.17   40.22
   8   0  -3  487.62   54.25
   8   0  -3  542.80   36.91
   8   0  -3  522.47   34.93
   8   0  -3  490.04   40.78
  -8   0   3  584.09   53.54
   7   0  -3    2.31    3.21
   7   0  -3   12.90   12.66
   7   0  -3    3.80    2.91
   7   0  -3    1.37    4.29
   7   0  -3    1.90    4.61
  -7   0   3    3.54    2.40
  -7   0   3    7.00   11.25
  -7   0   3    3.13    2.50
  -7   0   3    2.03    2.10
   6   0  -3 1000.05   64.82
   6   0  -3  986.46   64.37
   6   0  -3 1068.47   68.05
   6   0  -3 1099.32   82.95
   6   0  -3 1028.96   69.04
  -6   0   3 1179.07   81.07
  -6   0   3 1047.73   64.35
  -6   0   3 1017.57   68.68
   5   0  -3   24.95    6.89
   5   0  -3   28.59    7.10
   5   0  -3   28.06    5.20
   5   0  -3   27.04    5.25
   5   0  -3   26.56   12.27
  -5   0   3   28.00    4.77
  -5   0   3   32.51    7.47
  -5   0   3   27.27    5.60
  -5   0   3    7.55    9.22
   4   0  -3 1346.65   84.88
   4   0  -3 1421.38   95.74
   4   0  -3 1297.40   84.01
  -4   0   3 1364.19   84.73
  -4   0   3 1364.01   93.50
   3   0  -3  820.57   50.41
   3   0  -3  787.24   50.08
   3   0  -3  782.07   58.60
   3   0  -3  746.10   47.90
  -3   0   3  736.89   49.06
  -3   0   3  798.07   57.92
  -3   0   3  774.89   50.08
   2   0  -3 1056.21   75.09
  -2   0   3 1085.94   67.57
  -2   0   3 1091.50   67.57
  -2   0   3 1135.60   75.46
   1   0  -3   32.49    5.93
   1   0  -3   28.88    5.81
   1   0  -3   26.82    4.49
   1   0  -3   25.87    4.19
   1   0  -3   35.25    9.40
  -1   0   3   20.49    7.46
  -1   0   3   27.91    4.32
  -1   0   3   23.69    4.37
  -1   0   3   26.48    5.10
  -1   0   3   39.38    6.75
   0   0  -3 9999.00  589.46
  -1   0  -3   10.49    2.81
  -1   0  -3   20.08    4.69
  -1   0  -3    6.26    3.32
  -1   0  -3    4.89    4.74
  -1   0  -3   12.55    2.42
   1   0   3   11.04    3.37
   1   0   3    6.75    3.59
   1   0   3    8.02    5.60
   1   0   3   11.48    3.19
   1   0   3   19.49    5.21
  -2   0  -3 1340.97   87.58
  -2   0  -3 1309.73   83.39
   2   0   3 1417.39   87.46
  -3   0  -3  -17.83   54.32
   3   0   3   42.89   62.02
  -4   0  -3 1929.91  122.49
   4   0   3 1922.95  122.92
  -5   0  -3  134.03   10.13
  -5   0  -3  117.32   16.23
  -5   0  -3  122.08   13.95
  -5   0  -3  133.75   10.54
   5   0   3  115.18   11.38
   5   0   3  121.15   11.68
   5   0   3  121.96   18.14
   5   0   3  117.15   18.92
  -6   0  -3  650.60   42.02
  -6   0  -3  523.53   43.95
  -6   0  -3  535.59   34.49
   6   0   3  469.90   36.33
   6   0   3  597.98   43.36
   6   0   3  536.26   37.45
  -7   0  -3    0.04    1.72
  -7   0  -3   -0.90   12.64
  -7   0  -3    2.54    4.58
  -7   0  -3   11.35    8.99
   7   0   3   -0.72    6.76
   7   0   3    3.59    3.30
   7   0   3   -1.64    3.65
  -8   0  -3  548.84   54.92
  -8   0  -3  482.57   44.12
   8   0   3  499.87   42.86
   8   0   3  486.89   35.82
   8   0   3  506.82   37.28
  -9   0  -3   47.94   16.61
  -9   0  -3   18.35   19.36
   9   0   3   40.91   10.69
   9   0   3   37.17   13.73
   9   0   3   66.19   10.89
 -10   0  -3  415.67   52.33
  10   0   3  336.28   37.16
  10   0   3  385.01   32.31
 -11   0  -3   14.38   26.70
 -11   0  -3   33.84   21.54
  11   0   3   20.45   10.05
  11   0   3   23.27    8.52
  11   0   3    3.54    9.86
 -12   0  -3  156.13   34.09
  12   0   3  140.87   22.54
  12   0   3  168.13   27.33
  12   0   3  142.19   27.71
  12  -1  -3   28.21   12.55
  12  -1  -3   45.95   13.05
  12  -1  -3   18.47    4.59
 -12   1   3   -3.04   28.53
  11  -1  -3  135.61   12.17
  11  -1  -3  123.26   20.73
  11  -1  -3  170.69   25.52
 -11   1   3  112.72   32.87
 -11   1   3  123.68   36.09
  10  -1  -3    0.82    6.71
  10  -1  -3   20.61    6.64
  10  -1  -3   21.09    9.37
  10  -1  -3   17.23    4.51
 -10   1   3   20.63   25.11
 -10   1   3   15.60    5.41
   9  -1  -3  333.40   23.74
   9  -1  -3  313.24   29.82
   9  -1  -3  332.33   26.73
   9  -1  -3  318.40   30.36
  -9   1   3  338.84   22.07
  -9   1   3  377.19   22.76
  -9   1   3  411.00   51.38
  -9   1   3  291.07   24.87
   8  -1  -3  164.45   21.50
   8  -1  -3  128.63   11.16
   8  -1  -3  115.54   17.60
   8  -1  -3  123.58   13.36
   8  -1  -3  125.44   31.16
   8  -1  -3  107.02   12.50
  -8   1   3  118.31   12.60
  -8   1   3  142.00   31.86
  -8   1   3  122.43   11.92
   7  -1  -3  777.55   67.99
   7  -1  -3  647.04   48.00
   7  -1  -3  723.05   49.83
   7  -1  -3  687.62   43.38
   7  -1  -3  681.88   45.34
   7  -1  -3  669.27   45.58
  -7   1   3  785.92   45.57
  -7   1   3  562.79   44.23
  -7   1   3  667.20   62.44
  -7   1   3  693.98   42.94
   6  -1  -3   29.85   15.10
   6  -1  -3   16.32    3.94
   6  -1  -3   25.06    7.64
   6  -1  -3   30.95    8.14
   6  -1  -3   16.23    5.05
   6  -1  -3   25.96    5.90
  -6   1   3   34.65    7.74
  -6   1   3   22.46    5.73
  -6   1   3    2.23   12.06
  -6   1   3   18.51    4.20
  -6   1   3   21.90    5.74
   5  -1  -3 1594.40   96.95
   5  -1  -3 1668.61  116.00
   5  -1  -3 1624.77  101.29
  -5   1   3 1740.51  101.65
  -5   1   3 1589.44  112.94
  -5   1   3 1514.11   98.92
   4  -1  -3    1.15    1.93
   4  -1  -3   -4.41    6.41
   4  -1  -3   -1.67    2.00
   4  -1  -3    1.53    3.84
   4  -1  -3    2.34    3.50
  -4   1   3    3.41    2.49
  -4   1   3    1.92    2.71
  -4   1   3    9.84    8.42
  -4   1   3    0.77    2.93
  -4   1   3    1.95    2.28
  -4   1   3    0.12    2.43
   3  -1  -3 1740.44  123.61
  -3   1   3 2002.51  124.51
   2  -1  -3   13.95    4.51
   2  -1  -3   13.20    2.87
   2  -1  -3   15.40    3.33
   2  -1  -3   16.87    7.81
   2  -1  -3   15.95    4.27
  -2   1   3   12.73    3.09
  -2   1   3   14.27    4.62
  -2   1   3   17.58    7.61
  -2   1   3   16.70    4.53
  -2   1   3   11.13    2.87
   1  -1  -3  873.90   45.97
   1  -1  -3  737.62   47.27
   1  -1  -3  755.08   47.00
   1  -1  -3  665.03   53.16
  -1   1   3  696.57   47.03
  -1   1   3  722.90   46.80
  -1   1   3  721.80   53.54
   0  -1  -3  231.66   16.32
   0  -1  -3  228.66   14.39
   0  -1  -3  216.44   14.79
   0  -1  -3  196.97   16.11
   0  -1  -3  252.13   22.40
   0   1   3  206.53   14.25
   0   1   3  238.98   21.53
   0   1   3  202.55   14.54
   0   1   3  224.07   16.56
   0   1   3  214.25   16.15
   1   1   3  708.95   43.91
   1   1   3  689.48   48.36
  -2  -1  -3   62.89    7.20
   2   1   3   65.54    6.98
   2   1   3   41.72    3.63
   2   1   3   23.45    6.04
  -3  -1  -3 4364.30  259.85
   3   1   3 4319.90  258.74
  -4  -1  -3  131.33    8.87
  -4  -1  -3  137.85    9.13
  -4  -1  -3  134.46   13.38
  -4  -1  -3  122.75   14.66
   4   1   3  136.86   10.60
   4   1   3  135.60   10.88
   4   1   3  137.11    8.41
   4   1   3  153.47   15.30
   4   1   3  132.36   14.19
  -5  -1  -3 2789.30  170.40
   5   1   3 2762.70  170.85
  -6  -1  -3  200.41   20.28
  -6  -1  -3  162.06   16.43
   6   1   3  161.43   18.39
   6   1   3  171.10   13.77
   6   1   3  147.55   13.25
  -7  -1  -3  793.69   55.29
  -7  -1  -3  762.94   61.57
  -7  -1  -3  805.93   52.71
   7   1   3  701.58   48.13
   7   1   3  737.21   54.12
   7   1   3  674.03   47.51
  -8  -1  -3  112.90   13.00
  -8  -1  -3   59.98   18.15
  -8  -1  -3   82.18   15.99
   8   1   3   65.48   15.64
   8   1   3   85.68   12.48
   8   1   3   81.88   11.31
  -9  -1  -3  471.71   40.66
  -9  -1  -3  476.60   49.29
  -9  -1  -3  473.88   36.51
   9   1   3  355.12   37.44
   9   1   3  453.19   32.09
   9   1   3  421.70   33.21
 -10  -1  -3   35.66   15.64
 -10  -1  -3   38.41   21.95
  10   1   3   29.90    7.59
  10   1   3   16.57   10.95
  10   1   3   31.84   10.88
  10   1   3   15.22    6.79
 -11  -1  -3  148.96   34.14
 -11  -1  -3  179.41   29.38
  11   1   3  180.75   29.87
  11   1   3  190.84   20.00
  11   1   3  189.00   27.45
 -12  -1  -3   12.28   18.89
  12   1   3   23.16   10.10
  12   1   3   11.75    8.09
  12   1   3    2.45   10.09
  12  -2  -3  106.13   21.08
  12  -2  -3  116.16   21.22
  12  -2  -3   89.04    9.18
 -12   2   3    4.99   33.19
  11  -2  -3   37.52   12.75
  11  -2  -3   25.36   10.45
  11  -2  -3   34.45    6.19
  11  -2  -3   25.93    9.43
 -11   2   3  -20.41   22.78
 -11   2   3   33.49    7.97
 -11   2   3   11.62   29.54
  10  -2  -3  124.49   16.30
  10  -2  -3  138.37   11.96
  10  -2  -3  176.31   24.38
  10  -2  -3  110.59   20.41
 -10   2   3  123.51   15.64
 -10   2   3  142.49   12.78
 -10   2   3  147.13   38.07
   9  -2  -3   36.22    6.04
   9  -2  -3   34.34    9.91
   9  -2  -3   31.58   10.34
   9  -2  -3   48.59   28.16
   9  -2  -3   42.72   11.77
  -9   2   3   31.84    6.25
  -9   2   3   10.82   22.27
  -9   2   3   46.47   10.30
  -9   2   3   33.52    7.54
   8  -2  -3  232.94   44.40
   8  -2  -3  257.66   18.84
   8  -2  -3  247.89   24.77
   8  -2  -3  238.85   21.77
   8  -2  -3  279.30   23.96
   8  -2  -3  271.41   25.48
  -8   2   3  236.28   40.95
  -8   2   3  258.73   21.76
  -8   2   3  216.44   22.83
  -8   2   3  301.25   20.21
   7  -2  -3   80.28    7.94
   7  -2  -3   64.90   13.73
   7  -2  -3   84.74   12.81
   7  -2  -3   73.23   12.48
   7  -2  -3   62.14   12.71
   7  -2  -3   51.56   22.88
  -7   2   3   91.89   10.76
  -7   2   3   79.54   23.66
  -7   2   3   86.98    9.40
  -7   2   3   90.27   14.18
  -7   2   3   77.10   12.52
   6  -2  -3  227.57   21.46
   6  -2  -3  225.59   37.96
   6  -2  -3  242.82   17.39
   6  -2  -3  234.14   20.61
   6  -2  -3  245.63   22.18
   6  -2  -3  216.58   19.32
  -6   2   3  258.11   39.75
  -6   2   3  248.28   18.34
  -6   2   3  320.60   23.21
  -6   2   3  221.76   17.89
  -6   2   3  233.00   20.49
   5  -2  -3   93.08   10.37
   5  -2  -3  132.51   27.56
   5  -2  -3   99.40   11.38
   5  -2  -3  105.87   14.60
   5  -2  -3  120.20   12.88
   5  -2  -3   97.50    8.71
  -5   2   3  118.38   12.18
  -5   2   3  114.17   24.21
  -5   2   3  103.44   13.89
  -5   2   3  101.59   12.32
  -5   2   3  101.69    9.79
  -5   2   3   76.63    8.60
   4  -2  -3 1736.85  121.85
  -4   2   3 1761.18  120.33
  -4   2   3 1698.89  106.06
  -4   2   3 1712.04  106.14
   3  -2  -3   46.53    6.88
   3  -2  -3   56.10    9.38
   3  -2  -3   41.19    5.47
   3  -2  -3   37.26   12.83
   3  -2  -3   45.18    7.83
  -3   2   3   38.90    7.75
  -3   2   3   49.72    7.21
  -3   2   3   42.59    7.49
  -3   2   3   49.77    5.94
  -3   2   3   49.78   14.22
  -3   2   3   48.25    7.82
   2  -2  -3 2449.39  165.09
  -2   2   3 2720.79  165.74
   1  -2  -3   24.74    4.16
   1  -2  -3   15.94    6.92
   1  -2  -3   24.33    4.68
  -1   2   3   14.90    7.78
   0  -2  -3  606.82   45.44
   0   2   3  593.54   36.85
   0   2   3  640.01   39.04
   0   2   3  587.39   44.63
   0   2   3  595.38   37.31
  -1  -2  -3   42.27    9.40
  -1  -2  -3   57.41    5.24
  -1  -2  -3   61.89    6.26
  -1  -2  -3   56.58    4.95
   1   2   3   64.34    6.54
   1   2   3   59.95    5.05
   1   2   3   61.98   11.38
   1   2   3   61.41    6.58
   1   2   3   67.00    5.54
  -2  -2  -3 2553.96  155.73
   2   2   3 2543.30  154.37
  -3  -2  -3    5.69    4.41
  -3  -2  -3   10.18    2.03
   3   2   3   14.24    2.33
   3   2   3   11.12    2.55
   3   2   3   12.42    2.16
   3   2   3   10.81    3.65
   3   2   3   23.16    5.64
  -4  -2  -3 2918.99  176.34
  -5  -2  -3    1.20    4.06
   5   2   3    2.02    1.15
   5   2   3    2.70    3.94
   5   2   3    3.81    1.88
   5   2   3    4.21    1.92
   5   2   3    3.35    3.77
  -6  -2  -3 1091.50   76.28
  -6  -2  -3 1167.44   73.19
   6   2   3 1131.55   73.78
   6   2   3 1086.74   67.80
  -7  -2  -3   15.98    7.65
  -7  -2  -3   31.21   11.13
   7   2   3   32.46    6.01
   7   2   3   25.19    2.75
   7   2   3   36.85   10.33
   7   2   3   31.68    5.52
  -8  -2  -3  964.38   64.60
  -8  -2  -3  949.97   69.48
   8   2   3  883.58   55.35
   8   2   3  959.03   59.20
   8   2   3  912.40   65.80
   8   2   3  977.83   59.76
  -9  -2  -3   19.33    9.53
  -9  -2  -3    9.52   11.31
   9   2   3    2.78    7.79
   9   2   3    2.60    3.96
   9   2   3    4.11    0.85
   9   2   3    5.28    0.96
   9   2   3    2.74    3.34
 -10  -2  -3  335.32   34.71
 -10  -2  -3  268.34   28.40
  10   2   3  237.14   27.85
  10   2   3  275.67   27.60
  10   2   3  267.39   22.84
  10   2   3  238.41   21.10
 -11  -2  -3   -1.03   12.49
 -11  -2  -3    0.54   15.84
  11   2   3    0.39    3.34
  11   2   3    5.12    8.57
  11   2   3   -1.43    4.05
  11   2   3    0.93    6.46
 -12  -2  -3  144.57   26.23
 -12  -2  -3  145.90   23.81
  12   2   3  178.91   19.50
  12   2   3  157.70   26.75
  12   2   3  201.55   29.75
  12  -3  -3   35.20   12.82
 -12   3   3   16.59   35.42
  11  -3  -3  149.76   12.77
  11  -3  -3  139.38   24.05
  11  -3  -3  171.86   20.82
  11  -3  -3  124.49   22.51
 -11   3   3  125.50   46.28
 -11   3   3  134.34   21.94
  10  -3  -3   52.63    7.64
  10  -3  -3   66.59   14.37
  10  -3  -3   81.80   16.61
  10  -3  -3   70.82   16.42
 -10   3   3   48.18   30.62
 -10   3   3   65.55   10.65
 -10   3   3   71.72   14.70
 -10   3   3   17.59   22.32
 -10   3   3   43.67    8.08
   9  -3  -3  320.53   29.04
   9  -3  -3  330.81   30.58
   9  -3  -3  295.43   21.55
   9  -3  -3  297.45   29.33
  -9   3   3  275.90   28.42
  -9   3   3  311.17   23.55
  -9   3   3  294.42   25.44
  -9   3   3  308.98   54.13
   8  -3  -3   27.60    9.60
   8  -3  -3   48.61    6.46
   8  -3  -3   38.73   11.30
   8  -3  -3   29.62   10.29
   8  -3  -3   36.64   24.01
  -8   3   3   41.40   11.94
  -8   3   3    9.67   20.54
  -8   3   3   51.86    8.22
  -8   3   3   48.25   10.46
  -8   3   3   38.76    7.61
   7  -3  -3  904.59   61.34
   7  -3  -3  793.45   57.85
   7  -3  -3  936.74   84.20
   7  -3  -3  839.89   60.02
   7  -3  -3  877.91   61.45
   7  -3  -3  851.45   53.96
  -7   3   3  961.10   56.76
  -7   3   3  874.49   54.91
  -7   3   3  794.26   60.47
  -7   3   3  987.19   83.56
  -7   3   3  832.59   58.58
   6  -3  -3   30.45   17.98
   6  -3  -3   35.06    8.39
   6  -3  -3   36.53    5.76
   6  -3  -3   41.51   10.46
   6  -3  -3   51.23   11.15
   6  -3  -3   33.73    9.12
  -6   3   3   37.17    7.65
  -6   3   3   35.62    6.19
  -6   3   3   40.28   10.29
  -6   3   3   25.83   16.31
  -6   3   3   38.92    8.68
   5  -3  -3  581.44   38.00
   5  -3  -3  604.19   43.05
   5  -3  -3  629.87   43.76
   5  -3  -3  539.39   40.64
   5  -3  -3  714.06   61.65
   5  -3  -3  648.45   42.85
  -5   3   3  604.36   40.09
  -5   3   3  567.23   43.00
  -5   3   3  654.09   59.79
  -5   3   3  593.24   38.28
  -5   3   3  584.01   42.25
   4  -3  -3   80.53   12.62
   4  -3  -3   64.01   10.26
   4  -3  -3   64.36   18.48
   4  -3  -3   82.05   11.35
   4  -3  -3   66.30    6.71
  -4   3   3   67.76    6.87
  -4   3   3   90.62   13.05
  -4   3   3   60.57   11.81
  -4   3   3   68.14    9.68
  -4   3   3   69.26   19.08
  -4   3   3   91.97   11.93
   3  -3  -3 2213.23  148.64
  -3   3   3 2162.79  133.75
  -3   3   3 2214.78  148.32
   2  -3  -3   52.70   14.23
   2  -3  -3   69.54    8.67
   2  -3  -3   53.10    9.10
   2  -3  -3   61.88    8.75
   2  -3  -3   50.99    5.29
  -2   3   3   46.08    7.07
  -2   3   3   56.93    9.11
  -2   3   3   60.20    6.67
  -2   3   3   52.78    6.39
  -2   3   3   51.87   14.48
  -2   3   3   58.90    9.88
   1  -3  -3  717.31   55.43
   1  -3  -3  695.69   45.18
   1  -3  -3  674.08   43.61
   1  -3  -3  721.70   43.54
  -1   3   3  730.97   55.12
  -1   3   3  696.54   43.21
  -1   3   3  655.10   44.88
  -1   3   3  641.18   43.34
  -1   3   3  704.23   42.54
   0  -3  -3  209.64   16.73
   0  -3  -3  277.56   17.94
   0  -3  -3  254.35   17.75
   0  -3  -3  266.27   18.99
   0   3   3  271.21   19.29
   0   3   3  262.70   17.86
   0   3   3  262.52   25.77
   0   3   3  266.96   17.68
   0   3   3  251.47   17.05
  -1  -3  -3  828.06   61.03
   1   3   3  859.62   53.55
   1   3   3  954.65   61.43
  -2  -3  -3    6.22    1.96
  -2  -3  -3    3.53    4.40
   2   3   3    3.04    1.67
   2   3   3    5.83    2.34
   2   3   3   16.90    5.13
   2   3   3    4.97    1.92
  -3  -3  -3 1636.98   99.13
   3   3   3 1559.78   97.39
  -4  -3  -3   22.73    5.11
   4   3   3   24.32    2.47
   4   3   3   24.81    4.26
   4   3   3   27.40    2.40
   4   3   3   39.59    4.42
  -5  -3  -3  616.35   40.12
  -5  -3  -3  583.59   40.38
   5   3   3  631.98   38.80
   5   3   3  721.70   44.35
  -6  -3  -3    2.69    3.20
  -6  -3  -3    1.69    2.86
   6   3   3   -0.65    1.26
   6   3   3    0.63    1.23
   6   3   3    0.32    1.27
   6   3   3    4.06    4.33
  -7  -3  -3  948.30   57.46
  -7  -3  -3  932.27   57.16
   7   3   3  923.53   56.08
   7   3   3  938.75   56.05
   7   3   3  891.84   56.25
   7   3   3  927.56   63.23
  -8  -3  -3   25.67    5.13
  -8  -3  -3   15.03    4.62
   8   3   3   18.75    4.51
   8   3   3   20.74    8.94
   8   3   3   30.70    5.04
   8   3   3   20.20    3.50
   9   3   3  279.03   18.82
   9   3   3  302.28   27.38
   9   3   3  287.43   20.91
   9   3   3  328.02   29.57
   9   3   3  277.05   21.33
   9   3   3  265.37   18.50
  10   3   3    7.24    1.95
  10   3   3    2.36    1.58
  10   3   3    6.17    9.32
  10   3   3   19.38    8.66
  10   3   3    2.37    3.39
  10   3   3   -0.95    3.38
  11   3   3  216.81   19.02
  11   3   3  195.24   17.16
  11   3   3  177.32   25.70
  11   3   3  192.85   24.80
  11   3   3  176.70   11.82
  12   3   3    5.45    6.00
  12   3   3   20.88   10.91
  12   3   3   10.86   11.14
  11  -4  -3   16.45   10.81
  11  -4  -3   15.95   10.59
  11  -4  -3   18.38    4.60
  11  -4  -3    9.96    9.04
 -11   4   3   32.54   31.30
 -11   4   3  -18.93   36.52
 -11   4   3   -3.82    3.97
 -11   4   3   15.11    5.80
  10  -4  -3  357.44   33.78
  10  -4  -3  319.43   23.72
  10  -4  -3  320.36   33.64
  10  -4  -3  380.38   34.28
 -10   4   3  285.59   59.49
 -10   4   3  361.79   29.95
   9  -4  -3  126.25   21.46
   9  -4  -3  125.82   10.78
   9  -4  -3   87.35   17.75
   9  -4  -3  118.82   20.12
  -9   4   3  115.03   39.46
  -9   4   3  106.85   11.74
  -9   4   3  109.82   29.82
  -9   4   3  116.51   15.00
  -9   4   3  113.27   20.01
  -9   4   3  114.61   17.64
   8  -4  -3  467.57   38.54
   8  -4  -3  481.32   39.46
   8  -4  -3  427.50   36.89
   8  -4  -3  419.45   29.84
  -8   4   3  372.66   37.41
  -8   4   3  491.80   33.79
  -8   4   3  450.68   60.26
  -8   4   3  480.16   31.46
  -8   4   3  445.94   35.76
   7  -4  -3   30.14   10.73
   7  -4  -3   50.48   11.50
   7  -4  -3   62.30   27.73
   7  -4  -3   54.80   13.58
   7  -4  -3   63.29    7.85
  -7   4   3   61.15    8.37
  -7   4   3   43.96    9.16
  -7   4   3   67.05   14.60
  -7   4   3   81.86   13.82
  -7   4   3   78.94   26.28
   6  -4  -3  664.10   66.98
   6  -4  -3  514.79   41.22
   6  -4  -3  575.36   43.79
   6  -4  -3  649.81   45.02
   6  -4  -3  640.03   41.90
   6  -4  -3  585.53   36.80
  -6   4   3  609.09   40.11
  -6   4   3  526.59   41.39
  -6   4   3  552.09   36.95
  -6   4   3  454.63   42.48
  -6   4   3  552.44   61.83
   5  -4  -3    0.75   11.41
   5  -4  -3   14.42    3.65
   5  -4  -3    6.69    6.22
   5  -4  -3   15.05    6.26
   5  -4  -3   14.94    7.01
   5  -4  -3   14.21    5.30
  -5   4   3   10.38    5.55
  -5   4   3   15.55    6.99
  -5   4   3   11.74    3.63
  -5   4   3   15.58    5.44
  -5   4   3   24.23   16.66
   4  -4  -3 1136.54   74.30
   4  -4  -3 1277.02   74.95
   4  -4  -3 1196.71   76.90
   4  -4  -3 1098.77   93.23
   4  -4  -3 1153.91   71.02
  -4   4   3 1299.47   95.96
  -4   4   3 1047.82   76.54
  -4   4   3 1256.36   74.18
  -4   4   3 1084.28   75.41
   3  -4  -3  171.65   15.22
   3  -4  -3  188.72   13.54
   3  -4  -3  194.96   18.12
   3  -4  -3  190.80   33.53
   3  -4  -3  156.85   15.40
  -3   4   3  247.31   31.54
  -3   4   3  151.56   16.05
  -3   4   3  169.98   13.44
  -3   4   3  179.23   15.38
  -3   4   3  172.87   18.10
  -3   4   3  198.51   15.40
   2  -4  -3 1967.83  140.72
  -2   4   3 2156.83  142.09
   1  -4  -3  330.10   33.48
   1  -4  -3  291.68   19.47
   1  -4  -3  255.98   18.75
   1  -4  -3  283.40   21.87
   1  -4  -3  272.19   20.33
  -1   4   3  315.40   32.77
  -1   4   3  273.42   18.92
  -1   4   3  263.43   18.92
  -1   4   3  271.55   21.67
  -1   4   3  267.30   20.28
   0   4   3 2759.29  176.13
  -1  -4  -3  125.66   10.01
  -1  -4  -3  118.88    9.66
  -1  -4  -3  111.84   18.85
  -1  -4  -3  138.24   10.72
   1   4   3  126.89   10.37
   1   4   3  106.46   17.83
   1   4   3  133.34   10.15
   1   4   3  127.55   11.34
   1   4   3  138.62    9.91
  -2  -4  -3 1875.48  120.45
   2   4   3 1912.52  119.68
  -3  -4  -3  109.18   13.41
   3   4   3  147.30   13.48
   3   4   3  103.98    8.50
   3   4   3  141.45    9.62
   3   4   3  124.29    9.80
   4   4   3  722.62   44.46
   4   4   3  765.54   44.67
   5   4   3   14.58    5.74
   5   4   3    7.79    2.72
   6   4   3  767.33   47.93
   6   4   3  601.34   41.86
   7   4   3   12.83    3.54
   7   4   3   10.20    5.66
   7   4   3   13.92    2.15
   8   4   3  258.99   18.55
   8   4   3  236.91   23.54
   8   4   3  244.45   17.40
   8   4   3  350.74   26.66
   8   4   3  262.17   17.41
   9   4   3   17.21    3.77
   9   4   3    9.82    6.88
   9   4   3   11.07    3.31
   9   4   3   12.33    3.71
   9   4   3    7.80    7.53
  10   4   3  329.04   29.96
  10   4   3  279.28   20.95
  10   4   3  331.66   30.71
  10   4   3  296.04   20.00
  10   4   3  250.49   19.91
  10   4   3  302.50   21.87
  11   4   3   19.15   10.94
  11   4   3   10.18    2.85
  11   4   3    9.99    2.94
  11   4   3    3.35    7.06
  11   4   3   17.66    5.90
  11   4   3   19.92    5.52
  11  -5  -3  185.53   28.98
  11  -5  -3  116.91   23.04
  11  -5  -3  145.92   13.10
 -11   5   3   95.34   54.32
 -11   5   3  186.73   18.04
  10  -5  -3   25.09    5.28
  10  -5  -3   19.41   10.59
  10  -5  -3   38.79   13.11
  10  -5  -3   21.58   10.85
 -10   5   3  -11.99   35.06
 -10   5   3   39.04   10.22
 -10   5   3   21.22    6.28
 -10   5   3    8.44   26.47
   9  -5  -3  333.63   36.16
   9  -5  -3  390.25   35.76
   9  -5  -3  398.91   27.14
   9  -5  -3  416.20   37.93
  -9   5   3  383.84   28.42
  -9   5   3  351.06   65.15
  -9   5   3  331.93   54.43
  -9   5   3  435.41   31.88
   8  -5  -3   35.01   12.25
   8  -5  -3   17.04    9.25
   8  -5  -3   16.63    4.09
   8  -5  -3   14.18    7.59
  -8   5   3   11.18    4.42
  -8   5   3   19.82    7.89
  -8   5   3   48.21   28.64
  -8   5   3   22.53   23.05
   7  -5  -3  421.61   37.45
   7  -5  -3  432.24   35.23
   7  -5  -3  391.56   28.60
   7  -5  -3  422.21   37.85
  -7   5   3  471.27   36.10
  -7   5   3  515.27   64.16
  -7   5   3  443.40   29.57
  -7   5   3  367.25   36.89
  -7   5   3  436.86   32.97
   6  -5  -3  140.44   21.46
   6  -5  -3  174.16   13.29
   6  -5  -3  173.79   17.40
   6  -5  -3  162.05   20.28
   6  -5  -3   88.00   33.89
  -6   5   3  157.42   17.78
  -6   5   3  146.11   15.99
  -6   5   3  133.51   35.88
  -6   5   3  157.15   13.38
  -6   5   3  139.93   22.74
   5  -5  -3 1554.71   94.26
   5  -5  -3 1385.93  100.51
   5  -5  -3 1722.69  128.65
   5  -5  -3 1503.69   98.75
   5  -5  -3 1657.75   99.10
  -5   5   3 1660.13   94.80
  -5   5   3 1461.58  102.34
  -5   5   3 1557.18  100.59
  -5   5   3 1553.45  124.56
   4  -5  -3   97.54   29.37
   4  -5  -3  124.66   10.92
   4  -5  -3  115.21   12.90
   4  -5  -3  130.94   16.91
   4  -5  -3  124.61   18.27
  -4   5   3  144.38   19.00
  -4   5   3  160.16   14.47
  -4   5   3  130.47   11.26
  -4   5   3  104.79   26.85
  -4   5   3  121.99   19.62
   3  -5  -3  777.83   54.04
   3  -5  -3  756.11   72.50
   3  -5  -3  831.07   51.18
   3  -5  -3  823.99   52.93
   3  -5  -3  784.89   56.08
  -3   5   3  822.95   51.39
  -3   5   3  876.85   75.13
  -3   5   3  851.04   56.36
  -3   5   3  842.56   54.26
  -3   5   3  802.93   57.92
   2  -5  -3   15.62    5.26
   2  -5  -3   16.69    4.10
   2  -5  -3   29.46   16.23
   2  -5  -3   14.63    5.93
   2  -5  -3   17.38    4.59
  -2   5   3   26.45    6.98
  -2   5   3   21.71    4.48
  -2   5   3   15.58    7.37
  -2   5   3   32.28   16.65
  -2   5   3   19.51    6.79
   1  -5  -3 1625.55  103.91
   1  -5  -3 1681.42  119.95
  -1   5   3 1623.12  104.10
  -1   5   3 1653.77  106.88
  -1   5   3 1847.08  121.63
   0  -5  -3    6.61    4.57
   0  -5  -3    6.51    2.27
   0  -5  -3    3.06    2.24
   0  -5  -3    2.33    2.68
   0   5   3    6.64    4.26
   0   5   3    1.85    1.43
   0   5   3    5.62    2.75
   0   5   3    3.80    2.99
   0   5   3   -2.20    8.52
  -1  -5  -3 2058.61  140.10
   1   5   3 2190.69  140.46
  -2  -5  -3   19.94    9.17
   2   5   3   45.16    6.16
   2   5   3   24.73   10.02
   2   5   3   49.94    6.21
   2   5   3   32.87    4.42
   2   5   3   30.30    5.85
   3   5   3  629.35   43.02
   3   5   3  741.03   50.25
   3   5   3  760.68   44.68
   3   5   3  738.86   47.70
   3   5   3  668.58   43.93
   4   5   3   15.09    3.84
   4   5   3   13.64    3.40
   4   5   3   18.15    3.52
   4   5   3   12.50    2.60
   4   5   3   12.29    4.15
   6   5   3  103.99   12.93
   6   5   3   85.45    9.00
   7   5   3  575.23   41.92
   7   5   3  572.78   42.81
   7   5   3  603.14   38.30
   8   5   3   37.30    6.40
   8   5   3   29.38    2.58
   8   5   3   34.54    2.73
   8   5   3   28.33    8.55
   8   5   3   31.38    8.99
   9   5   3  359.91   23.36
   9   5   3  363.73   23.60
   9   5   3  351.26   31.64
   9   5   3  415.21   33.27
   9   5   3  368.15   25.76
  10   5   3   17.77    4.39
  10   5   3   14.37    8.80
  10   5   3   19.18    8.45
  10   5   3   11.92    3.29
  10   5   3    9.44    3.34
  11   5   3  135.43   21.94
  11   5   3  128.87   11.86
  11   5   3  121.30   20.77
  11   5   3  145.24   13.11
  11   5   3  137.16   12.30
  11   5   3  167.52   12.68
  10  -6  -3   97.59   19.44
  10  -6  -3  126.48   24.50
  10  -6  -3  101.01   13.17
 -10   6   3  141.62   19.22
 -10   6   3  -14.85   34.91
 -10   6   3  227.63   63.34
   9  -6  -3   11.27    8.33
   9  -6  -3   10.48    9.01
   9  -6  -3   13.75    4.19
   9  -6  -3   18.15   10.81
  -9   6   3   17.42    5.39
  -9   6   3   18.49    7.70
  -9   6   3  -18.26   25.67
  -9   6   3   26.35   29.35
   8  -6  -3  230.07   28.95
   8  -6  -3  281.47   26.99
   8  -6  -3  280.15   28.89
   8  -6  -3  235.38   19.37
  -8   6   3  253.68   24.14
  -8   6   3  295.88   61.48
  -8   6   3  239.59   47.23
  -8   6   3  272.73   20.79
   7  -6  -3  122.39   10.93
   7  -6  -3   91.70   19.63
   7  -6  -3  117.36   18.17
   7  -6  -3   94.79   19.66
  -7   6   3  113.51   13.19
  -7   6   3  123.10   18.18
  -7   6   3  129.94   41.87
  -7   6   3  149.64   35.66
   6  -6  -3  696.26   44.51
   6  -6  -3  735.54   54.16
   6  -6  -3  691.58   49.49
  -6   6   3  671.09   78.47
  -6   6   3  659.78   48.50
  -6   6   3  654.86   44.59
   5  -6  -3  150.23   21.89
   5  -6  -3  140.31   15.45
   5  -6  -3  136.42   12.27
  -5   6   3  142.12   18.65
  -5   6   3  133.05   12.61
  -5   6   3  133.50   22.48
  -5   6   3  168.50   38.50
  -5   6   3  162.19   17.46
   4  -6  -3  773.66   53.80
   4  -6  -3  707.69   48.44
   4  -6  -3  714.07   46.15
   4  -6  -3  704.83   74.81
   4  -6  -3  716.35   50.20
  -4   6   3  770.60   50.49
  -4   6   3  719.11   52.07
  -4   6   3  740.57   46.48
  -4   6   3  621.19   53.35
  -4   6   3  686.82   71.44
   3  -6  -3   26.15    5.46
   3  -6  -3   22.23    8.30
   3  -6  -3   29.37   19.20
   3  -6  -3   35.89    6.99
   3  -6  -3   26.66    7.30
  -3   6   3   29.94    8.19
  -3   6   3   20.12    9.20
  -3   6   3   21.52    4.88
  -3   6   3   33.28    8.58
  -3   6   3   32.30   18.36
   2  -6  -3 1006.71   68.20
   2  -6  -3 1049.26   65.80
   2  -6  -3 1107.26   65.95
   2  -6  -3 1182.53   71.71
   2  -6  -3 1072.24   90.93
  -2   6   3 1046.17   68.65
  -2   6   3 1006.20   73.00
  -2   6   3 1000.64   70.10
  -2   6   3 1093.01   90.34
   1  -6  -3  144.62   15.20
   1  -6  -3  136.77   29.36
   1  -6  -3  125.81   12.80
   1  -6  -3  134.86   10.94
   1  -6  -3  126.08   11.46
  -1   6   3  140.73   13.89
  -1   6   3  156.86   31.12
  -1   6   3  151.39   17.55
  -1   6   3  124.90   16.94
  -1   6   3  139.53   12.01
   0  -6  -3 1395.42   84.35
   0  -6  -3 1343.80   83.46
   0  -6  -3 1401.62   85.98
   0   6   3 1387.05  102.91
   0   6   3 1290.67   84.95
   0   6   3 1447.54   91.24
   0   6   3 1319.26   86.53
  -1  -6  -3  207.32   15.36
  -1  -6  -3  172.59   13.66
   1   6   3  156.17   15.55
   1   6   3  174.64   15.01
   1   6   3  156.30   27.61
   1   6   3  173.11   14.21
   2   6   3  490.81   30.50
   2   6   3  529.77   30.60
   2   6   3  516.75   34.49
   2   6   3  572.59   47.20
   2   6   3  499.12   35.44
   2   6   3  530.40   34.49
   2   6   3  514.36   40.97
   3   6   3    9.19    6.07
   3   6   3    6.95    2.14
   3   6   3   13.92    8.86
   3   6   3   10.62    2.51
   3   6   3    1.73    2.49
   3   6   3    8.98    3.67
   3   6   3    5.59    3.60
   4   6   3 1148.48   71.07
   4   6   3 1174.45   72.37
   4   6   3 1145.61   71.30
   4   6   3 1130.44   70.49
   4   6   3 1218.41   73.37
   4   6   3 1179.84   75.85
   5   6   3   28.12    5.97
   5   6   3   30.71    6.15
   5   6   3   26.03    4.38
   5   6   3   25.67    3.93
   6   6   3 1533.50   92.95
   6   6   3 1537.46   94.42
   6   6   3 1482.57   89.34
   7   6   3   43.37   10.94
   7   6   3   25.38    7.42
   7   6   3   32.38    6.61
   8   6   3  437.93   36.13
   8   6   3  467.45   35.58
   8   6   3  456.04   31.65
   9   6   3    4.20    3.52
   9   6   3   14.65    7.05
   9   6   3   10.11    1.60
   9   6   3   -0.43    4.26
   9   6   3   10.44    1.51
  10   6   3  143.77   19.65
  10   6   3  150.06   11.44
  10   6   3  181.58   14.98
  10   6   3  203.28   20.63
  10   6   3  160.70   11.13
  11   6   3   32.68   10.48
  11   6   3   12.79    3.92
  11   6   3   17.66    9.14
  11   6   3   21.81    4.85
  11   6   3   21.56    3.89
  10  -7  -3   18.52   10.81
  10  -7  -3   25.04   12.11
 -10   7   3   55.33   47.59
 -10   7   3  -23.04   38.00
 -10   7   3   11.38    8.45
 -10   7   3   15.67    5.50
   9  -7  -3  102.79   19.09
   9  -7  -3  131.00   25.57
  -9   7   3   94.44   12.57
  -9   7   3   37.50   32.02
  -9   7   3   88.78   16.50
  -9   7   3   86.12   50.40
   8  -7  -3    3.71    5.55
   8  -7  -3   15.17   10.92
  -8   7   3    6.53    7.00
  -8   7   3   12.90    4.91
  -8   7   3    0.79   26.25
  -8   7   3   19.13   38.65
   7  -7  -3  317.35   33.38
   7  -7  -3  299.37   28.57
  -7   7   3  369.93   30.13
  -7   7   3  294.20   23.83
  -7   7   3  297.21   52.79
  -7   7   3  328.99   66.62
   6  -7  -3   35.46    9.66
   6  -7  -3   39.31   12.56
   6  -7  -3   46.51    7.29
  -6   7   3   28.37    6.71
  -6   7   3   44.53   21.42
  -6   7   3   49.56   34.84
  -6   7   3   50.45   12.23
   5  -7  -3  371.29   28.76
   5  -7  -3  391.25   36.79
   5  -7  -3  391.80   31.74
  -5   7   3  456.80   34.57
  -5   7   3  426.95   67.81
  -5   7   3  492.71   54.08
  -5   7   3  434.71   29.83
   4  -7  -3   -0.99    3.36
   4  -7  -3   -1.30    2.16
   4  -7  -3   -0.75    6.49
  -4   7   3    3.47   11.44
  -4   7   3    3.76   21.23
  -4   7   3   -3.97    2.14
  -4   7   3    6.36    6.28
   3  -7  -3  962.08   63.67
   3  -7  -3  866.41   56.17
   3  -7  -3  907.37   60.24
   3  -7  -3  929.18   57.11
  -3   7   3  937.78   75.96
  -3   7   3  905.62   60.45
  -3   7   3  800.61   64.47
  -3   7   3  960.72   86.42
  -3   7   3  814.21   56.08
  -3   7   3  795.48   61.15
   2  -7  -3    1.47    4.19
   2  -7  -3    0.72    4.78
   2  -7  -3    4.82    3.00
   2  -7  -3    1.58    2.81
  -2   7   3   -1.56    5.53
  -2   7   3    2.90    4.57
  -2   7   3   -7.14   16.50
  -2   7   3    8.54   13.09
  -2   7   3    0.97    4.99
  -2   7   3    2.08    2.31
   1  -7  -3  606.94   37.34
   1  -7  -3  638.68   43.81
   1  -7  -3  612.42   41.39
   1  -7  -3  565.71   39.17
  -1   7   3  547.71   46.27
  -1   7   3  602.60   42.15
  -1   7   3  573.10   43.35
  -1   7   3  596.31   39.60
  -1   7   3  586.54   53.37
  -1   7   3  575.95   61.58
   0  -7  -3   19.11    5.77
   0  -7  -3   28.02    7.85
   0   7   3   12.58    5.28
   0   7   3    8.29    4.13
   0   7   3   28.01   12.71
   0   7   3   16.34    8.31
   0   7   3    2.29   14.20
   0   7   3    9.23    6.03
  -1  -7  -3  709.79   45.30
  -1  -7  -3  677.97   43.75
   1   7   3  689.64   47.45
   1   7   3  791.74   65.69
   1   7   3  658.47   44.50
   1   7   3  664.16   51.57
   1   7   3  627.75   45.49
   1   7   3  687.16   55.83
   2   7   3   18.86   14.41
   2   7   3   39.21    7.46
   2   7   3   52.36    9.54
   2   7   3   24.88    5.81
   2   7   3   43.38   12.50
   3   7   3 1002.04   76.82
   3   7   3  862.47   69.47
   3   7   3 1051.41   66.20
   3   7   3 1160.46   65.94
   3   7   3 1072.30   65.10
   4   7   3   57.96   10.85
   4   7   3   72.11   15.03
   4   7   3   51.60    5.42
   4   7   3   58.93    8.95
   4   7   3   51.46    8.65
   4   7   3   61.71    8.42
   4   7   3   50.81    5.52
   5   7   3  609.80   42.04
   5   7   3  729.75   44.27
   5   7   3  672.90   40.39
   5   7   3  622.59   41.31
   5   7   3  611.28   41.77
   5   7   3  671.63   40.77
   6   7   3   61.79    6.37
   6   7   3   67.87    9.78
   6   7   3   68.44    7.13
   6   7   3   58.53    9.52
   7   7   3  753.56   49.71
   7   7   3  726.26   46.00
   7   7   3  779.83   50.97
   8   7   3    3.42    3.68
   8   7   3    3.37    1.74
   8   7   3    3.48    5.71
   8   7   3   -2.73    3.51
   8   7   3    2.02    1.38
   9   7   3  215.53   23.07
   9   7   3  210.69   21.85
   9   7   3  234.70   19.19
  10   7   3    3.52    5.62
  10   7   3   11.39    4.06
  10   7   3    1.46    6.12
   9  -8  -3    9.54    8.66
   9  -8  -3   13.60   11.80
  -9   8   3  -19.22   35.57
  -9   8   3    9.34    5.14
  -9   8   3   13.26    8.88
  -9   8   3   50.01   52.79
   8  -8  -3  173.74   24.43
   8  -8  -3  135.56   24.87
  -8   8   3  139.71   62.11
  -8   8   3  145.27   46.66
  -8   8   3  142.96   22.24
  -8   8   3  139.55   14.61
   7  -8  -3   26.88   12.95
   7  -8  -3   23.25    8.68
  -7   8   3   25.43    6.81
  -7   8   3   16.13   23.12
  -7   8   3    0.40   40.68
  -7   8   3   38.08   11.32
   6  -8  -3  439.49   38.52
   6  -8  -3  356.70   31.52
  -6   8   3  401.47   61.56
  -6   8   3  469.61   77.15
  -6   8   3  370.08   28.63
  -6   8   3  370.17   33.47
   5  -8  -3   24.12   11.00
   5  -8  -3   35.15    8.83
  -5   8   3   41.13   11.80
  -5   8   3   29.97    7.18
  -5   8   3   56.45   23.56
  -5   8   3   32.83   32.89
   4  -8  -3  178.51   26.65
   4  -8  -3  190.38   17.38
  -4   8   3  171.79   16.23
  -4   8   3  176.79   20.23
  -4   8   3  205.84   41.01
  -4   8   3  179.38   46.97
   3  -8  -3   35.17    7.08
   3  -8  -3   29.08   11.32
   3  -8  -3   25.22    8.95
  -3   8   3   40.23   27.86
  -3   8   3   35.65   10.71
  -3   8   3   22.39    6.42
  -3   8   3    9.29   17.71
   2  -8  -3  496.37   37.74
   2  -8  -3  573.39   41.78
  -2   8   3  555.68   39.71
  -2   8   3  521.85   64.23
  -2   8   3  491.36   53.21
  -2   8   3  442.17   34.84
   1  -8  -3    4.88    2.08
   1  -8  -3    7.43    5.21
   1  -8  -3   -5.85    5.52
  -1   8   3    3.45    3.71
  -1   8   3    5.05   10.76
  -1   8   3   -5.35   17.67
  -1   8   3    8.07    5.35
  -1   8   3    6.25    4.51
   0  -8  -3  513.44   33.80
   0  -8  -3  452.48   35.12
   0   8   3  445.10   55.59
   0   8   3  465.75   32.93
   0   8   3  446.94   35.97
   0   8   3  505.58   47.84
   0   8   3  411.41   34.29
  -1  -8  -3    8.95    5.03
  -1  -8  -3   13.58    4.48
   1   8   3    6.72   10.65
   1   8   3    5.94    4.60
   1   8   3   15.97    8.37
   1   8   3    5.72    3.78
   1   8   3   10.03    6.26
   1   8   3   12.64   18.01
   2   8   3  737.93   48.80
   2   8   3  660.26   54.59
   2   8   3  741.53   68.14
   2   8   3  787.67   48.20
   2   8   3  726.53   49.93
   2   8   3  616.39   55.80
   3   8   3   44.93   12.53
   3   8   3   39.69    8.11
   3   8   3   48.47   14.16
   3   8   3   35.07    8.50
   3   8   3   36.49   18.45
   3   8   3   37.97    8.21
   4   8   3  291.28   21.94
   4   8   3  263.36   20.72
   4   8   3  244.28   25.43
   4   8   3  273.27   21.93
   4   8   3  235.80   31.10
   5   8   3   53.49    9.61
   5   8   3   53.29    8.98
   5   8   3   60.06    5.84
   5   8   3   47.58    9.30
   5   8   3   54.12    5.61
   5   8   3   57.06    8.47
   5   8   3   51.44   11.91
   6   8   3  330.70   25.55
   6   8   3  345.70   24.99
   6   8   3  356.15   25.23
   6   8   3  431.87   28.81
   7   8   3   23.58    5.97
   7   8   3   35.56    8.14
   7   8   3   34.71    6.08
   7   8   3   27.21    5.01
   8   8   3  275.07   20.88
   8   8   3  198.71   15.96
   8   8   3  226.80   20.21
   8   8   3  215.73   15.81
   8   8   3  258.79   25.04
   9   8   3    9.15    2.38
   9   8   3    8.03    6.37
   9   8   3   13.91    2.79
   9   8   3   21.51    6.34
   9   8   3   23.37    8.74
   8  -9  -3   16.92   13.06
   8  -9  -3    8.52    7.59
  -8   9   3   16.70   37.88
  -8   9   3   18.83    9.34
  -8   9   3  -45.75   55.86
  -8   9   3   -0.10    4.12
   7  -9  -3  110.28   23.77
   7  -9  -3  183.55   23.64
  -7   9   3  156.64   22.80
  -7   9   3  184.65   69.65
  -7   9   3  160.50   15.90
  -7   9   3  162.98   46.68
   6  -9  -3   -0.99    7.67
   6  -9  -3    1.67    5.05
  -6   9   3    3.94    4.44
  -6   9   3    7.26    7.89
  -6   9   3  -14.17   28.44
  -6   9   3   -5.03   35.06
   5  -9  -3  180.86   18.42
   5  -9  -3  188.52   28.63
  -5   9   3  197.08   41.13
  -5   9   3  156.66   16.76
  -5   9   3  173.54   57.48
  -5   9   3  197.72   25.93
   4  -9  -3   29.49   12.32
   4  -9  -3   19.45    6.51
  -4   9   3   56.17   35.36
  -4   9   3   13.58   23.54
  -4   9   3   15.36    8.03
  -4   9   3   18.58    6.19
   3  -9  -3  292.71   22.53
   3  -9  -3  314.36   30.38
  -3   9   3  318.82   61.86
  -3   9   3  252.32   26.65
  -3   9   3  315.79   41.80
  -3   9   3  293.63   23.90
   2  -9  -3  105.58   15.68
   2  -9  -3   96.31    9.34
   2  -9  -3  111.86   18.88
  -2   9   3   84.17   37.46
  -2   9   3  119.35   18.47
  -2   9   3   83.07   12.66
  -2   9   3  117.24   29.51
   1  -9  -3  799.82   54.47
   1  -9  -3  700.45   50.59
  -1   9   3  701.93   52.50
  -1   9   3  765.76   69.06
  -1   9   3  746.82   81.15
  -1   9   3  715.18   49.52
   0  -9  -3   40.04   10.71
   0  -9  -3   52.77    9.58
   0   9   3   30.15   24.56
   0   9   3   36.38    8.04
   0   9   3   46.76   19.57
   0   9   3   42.79   10.36
  -1  -9  -3  538.33   37.79
  -1  -9  -3  543.65   39.06
   1   9   3  547.33   41.56
   1   9   3  586.07   53.66
   1   9   3  611.53   66.76
   1   9   3  583.98   39.93
   2   9   3    5.93    4.60
   2   9   3   23.93    6.91
   2   9   3    8.20    5.98
   2   9   3   37.79   22.46
   3   9   3  304.97   26.10
   3   9   3  299.09   45.47
   3   9   3  300.71   25.20
   3   9   3  317.16   25.23
   4   9   3    6.95    5.08
   4   9   3    6.92    5.40
   4   9   3    3.34    4.25
   4   9   3   11.76   17.43
   4   9   3   10.57   11.05
   5   9   3  282.99   23.55
   5   9   3  331.73   25.10
   5   9   3  301.62   25.08
   5   9   3  297.30   27.76
   5   9   3  299.11   31.98
   6   9   3    5.48    4.69
   6   9   3    3.29    4.25
   6   9   3    3.50    1.87
   6   9   3    5.77    3.93
   6   9   3    2.18    1.52
   7   9   3  136.45   17.27
   7   9   3  138.44   12.91
   7   9   3  159.62   14.04
   7   9   3  136.05   12.22
   8   9   3   13.85    4.14
   8   9   3    4.79    4.94
   8   9   3   21.26    5.77
   8   9   3   15.35    4.93
   7 -10  -3   16.30   12.16
   7 -10  -3   10.42    7.22
  -7  10   3   14.62    6.21
  -7  10   3    2.14   56.47
  -7  10   3   31.61   32.83
  -7  10   3    6.42    6.51
   6 -10  -3  175.20   19.40
   6 -10  -3  182.53   30.23
  -6  10   3  155.39   19.99
  -6  10   3  219.17   55.23
  -6  10   3  247.98   25.48
  -6  10   3  164.22   67.80
   5 -10  -3   24.77    7.27
   5 -10  -3   23.12   10.89
  -5  10   3   24.43   10.49
  -5  10   3   47.38   38.79
  -5  10   3   21.27    7.13
  -5  10   3   13.57   24.73
   4 -10  -3  286.78   29.86
   4 -10  -3  224.59   19.77
  -4  10   3  256.94   61.90
  -4  10   3  235.71   48.58
  -4  10   3  205.18   20.72
  -4  10   3  222.17   25.31
   3 -10  -3   19.50    5.26
   3 -10  -3   11.00   10.27
  -3  10   3    5.22    7.57
  -3  10   3   32.43   39.83
  -3  10   3   11.84    6.23
  -3  10   3   17.43   26.17
   2 -10  -3  170.53   11.47
   2 -10  -3  187.21   25.41
  -2  10   3  154.91   16.70
  -2  10   3  202.25   25.93
  -2  10   3  145.36   47.65
   1 -10  -3   35.75   11.85
   1 -10  -3   27.81    8.03
  -1  10   3   16.08    8.88
  -1  10   3    9.71    5.92
  -1  10   3   22.09   31.05
   0 -10  -3  309.97   27.92
   0 -10  -3  294.87   25.39
   0  10   3  334.15   29.14
   0  10   3  314.13   25.75
   0  10   3  356.49   61.04
  -1 -10  -3    5.82    4.56
  -1 -10  -3    9.42    5.17
   1  10   3   -2.02    4.45
   1  10   3    0.50   25.82
   1  10   3    3.48    4.60
   1  10   3   35.25   18.44
   2  10   3  322.30   26.30
   2  10   3  315.71   54.46
   2  10   3  304.93   27.32
   3  10   3   14.09   23.44
   3  10   3    7.76    4.82
   3  10   3   -7.45   14.04
   3  10   3    2.92    4.61
   4  10   3  321.33   36.89
   4  10   3  369.26   29.78
   4  10   3  425.43   51.26
   4  10   3  383.74   29.93
   5  10   3   25.08    7.62
   5  10   3   16.77   20.10
   5  10   3   29.39    7.73
   5  10   3   31.63   13.94
   5  10   3   20.34    8.02
   6  10   3  157.82   15.19
   6  10   3  127.68   14.99
   6  10   3  156.63   19.05
   7  10   3   15.91    5.39
   7  10   3    8.24    5.77
   7  10   3    9.24    5.49
   5 -11  -3  187.93   17.80
   5 -11  -3  194.48   30.23
  -5  11   3  155.88   20.35
  -5  11   3  214.39   71.69
  -5  11   3  167.24   26.39
  -5  11   3  215.27   58.86
   4 -11  -3   35.38   13.86
  -4  11   3   27.18    7.80
  -4  11   3   11.74   40.25
  -4  11   3   23.61   34.53
  -4  11   3   21.15   10.15
   3 -11  -3  230.21   33.65
  -3  11   3  244.03   23.36
  -3  11   3  312.44   29.74
  -3  11   3  177.90   66.71
  -3  11   3  255.29   54.24
   2 -11  -3   -0.40    9.34
  -2  11   3   24.92   29.00
  -2  11   3    4.72    7.27
  -2  11   3    3.93    5.42
  -2  11   3   32.96   44.10
   1 -11  -3  191.24   19.82
   1 -11  -3  228.59   24.52
  -1  11   3  191.20   26.53
  -1  11   3  167.19   41.84
  -1  11   3  200.58   19.35
  -1  11   3   94.51   49.14
   0 -11  -3   26.30    9.47
   0 -11  -3   25.04    7.20
   0  11   3   25.38   25.84
   0  11   3    4.09   35.59
   0  11   3   19.24    7.11
   0  11   3   17.86    8.61
   1  11   3  165.84   52.45
   1  11   3  208.57   22.29
   1  11   3  205.78   38.57
   1  11   3  193.08   19.90
   2  11   3   -4.18   19.92
   2  11   3  -37.42   32.58
   2  11   3    3.90    5.37
   2  11   3    6.38    6.14
   3  11   3  265.57   38.56
   3  11   3  225.87   23.21
   3  11   3  197.47   48.34
   3  11   3  220.32   21.82
   4  11   3    9.19    6.23
   4  11   3    6.83   17.47
   4  11   3   41.87   30.72
   4  11   3    2.44    4.20
   5  11   3  174.23   19.09
   5  11   3  258.03   39.64
   5  11   3  194.30   20.14
   2 -12  -3  144.85   22.25
  -2  12   3  122.71   46.34
  -2  12   3  170.06   26.86
  -2  12   3  129.67   18.12
  -2  12   3   86.72   59.44
   1 -12  -3    0.12    7.77
  -1  12   3  -34.09   46.51
  -1  12   3   13.98    7.07
  -1  12   3   -6.36    4.43
   0  12   3   93.60   52.13
   0  12   3  106.94   18.83
   0  12   3  111.39   17.35
   1  12   3   16.46   45.27
   1  12   3   18.30    7.75
   1  12   3    7.86    6.10
   2  12   3  192.66   25.77
   2  12   3  144.42   55.91
   2  12   3  174.09   22.27
   3  12   3   -3.69   42.92
   4   9  -4   18.88   10.26
   3   9  -4  143.29   22.82
  -3  -9   4   97.87   39.65
   2   9  -4   19.50   30.17
   2   9  -4   18.05   10.00
  -2  -9   4   -4.28   27.91
  -2  -9   4   -1.65    3.05
  -2  -9   4    3.81    6.64
  -2  -9   4   -0.79    1.40
   1   9  -4  178.12   19.62
   1   9  -4  163.75   42.65
   1   9  -4  227.45   25.18
  -1  -9   4  220.79   23.13
  -1  -9   4  202.66   46.71
   0   9  -4    9.59    6.38
   0   9  -4   15.12    9.96
   0   9  -4  -28.96   27.44
   0  -9   4   21.11   10.19
   0  -9   4   12.48   31.20
  -1   9  -4  189.69   22.35
  -1   9  -4  162.71   26.01
  -1   9  -4  172.50   44.65
   1  -9   4  175.78   28.05
   1  -9   4  184.27   34.84
  -2   9  -4    5.78   30.51
  -2   9  -4    9.53    8.18
  -2   9  -4   18.72    7.00
   2  -9   4    2.90    7.85
   2  -9   4   15.50   13.83
  -3   9  -4  146.29   46.03
  -3   9  -4  163.72   68.37
  -3   9  -4  137.67   23.46
  -3   9  -4  125.38   17.37
   3  -9   4  165.60   27.08
   3  -9   4  164.62   34.24
  -4   9  -4   36.43   60.52
  -4   9  -4   -1.31    4.13
  -4   9  -4    2.87    6.57
  -4   9  -4   32.69   30.33
   4  -9   4   11.75   13.19
   4  -9   4   11.39   10.38
   6   8  -4  122.58   16.43
   6   8  -4  146.18   15.96
   6   8  -4  151.90   21.86
   5   8  -4   29.88   25.90
   5   8  -4   24.85    8.83
   5   8  -4   19.71    6.24
   5   8  -4   36.13   11.22
  -5  -8   4   10.60   21.99
   4   8  -4  169.64   19.05
   4   8  -4  210.27   43.09
   4   8  -4  144.13   22.47
  -4  -8   4  161.65   37.35
   3   8  -4   24.06    9.77
   3   8  -4   14.97   24.18
  -3  -8   4   16.75    5.34
  -3  -8   4   38.80   24.01
  -3  -8   4   17.09    5.99
   2   8  -4  226.01   44.65
   2   8  -4  256.46   27.63
  -2  -8   4  345.04   50.24
  -2  -8   4  236.21   24.20
  -2  -8   4  274.73   21.45
  -2  -8   4  277.30   24.42
   1   8  -4   44.33   23.42
   1   8  -4   34.35   12.06
  -1  -8   4   44.39   11.57
  -1  -8   4   42.93    8.41
  -1  -8   4   63.94   14.62
  -1  -8   4   33.10   24.73
   0   8  -4  371.29   33.29
   0  -8   4  319.87   26.21
   0  -8   4  342.24   38.42
   0  -8   4  321.61   54.25
   0  -8   4  366.74   32.88
  -1   8  -4    9.70    8.75
  -1   8  -4    4.63    5.21
   1  -8   4  -16.99   24.65
   1  -8   4   23.70   12.13
   1  -8   4   18.12   10.33
   1  -8   4   18.15    5.94
  -2   8  -4  343.31   54.98
  -2   8  -4  321.40   26.01
  -2   8  -4  302.18   31.70
   2  -8   4  436.62   62.88
   2  -8   4  318.43   37.49
   2  -8   4  280.05   31.51
   2  -8   4  278.94   25.05
  -3   8  -4    1.27   19.98
  -3   8  -4   40.49    8.95
  -3   8  -4   16.08   11.02
   3  -8   4   47.59   13.59
   3  -8   4   35.88   16.26
   3  -8   4   47.24    8.92
  -4   8  -4  203.00   18.87
  -4   8  -4  280.37   69.42
  -4   8  -4  252.80   51.85
  -4   8  -4  188.88   28.63
   4  -8   4  147.66   27.69
   4  -8   4  199.06   36.37
  -5   8  -4  -15.28   57.62
  -5   8  -4    2.39    4.52
  -5   8  -4   18.62   11.14
  -5   8  -4   43.79   32.63
   5  -8   4   -2.55    9.99
   5  -8   4   -3.18    5.08
  -6   8  -4  141.53   74.24
  -6   8  -4  193.29   53.49
  -6   8  -4  138.43   14.29
  -6   8  -4  142.30   24.34
   6  -8   4   87.23   25.18
   6  -8   4  137.27   26.36
   8   7  -4   -0.27    6.53
   8   7  -4   17.80    8.94
   7   7  -4  161.35   21.37
   7   7  -4  203.68   21.49
   7   7  -4  178.66   14.40
   7   7  -4  184.31   39.36
  -7  -7   4  153.44   29.21
   6   7  -4   23.43    6.90
   6   7  -4   19.08    7.67
   6   7  -4   25.16    8.75
   6   7  -4   -0.22   22.72
  -6  -7   4   36.28   20.75
   5   7  -4  254.99   25.68
   5   7  -4  283.29   23.79
   5   7  -4  260.11   22.74
   5   7  -4  224.15   43.02
  -5  -7   4  233.39   39.47
  -5  -7   4  262.34   22.38
   4   7  -4   14.09    5.17
   4   7  -4    6.87    7.23
   4   7  -4   15.87    7.61
  -4  -7   4    9.09   17.34
  -4  -7   4    5.48    4.46
   3   7  -4  319.09   29.67
   3   7  -4  340.36   29.20
  -3  -7   4  303.19   24.69
  -3  -7   4  307.39   41.91
   2   7  -4   62.33   14.32
   2   7  -4   50.21   13.03
  -2  -7   4   42.56   20.82
  -2  -7   4   74.43   13.31
  -2  -7   4   72.45   13.15
  -2  -7   4   57.87    9.87
   1   7  -4  510.20   53.46
   1   7  -4  533.45   56.04
   1   7  -4  553.52   42.98
  -1  -7   4  513.17   39.49
  -1  -7   4  539.73   41.36
  -1  -7   4  452.84   36.23
  -1  -7   4  596.61   48.31
  -1  -7   4  491.38   54.95
   0   7  -4   49.88   12.72
   0   7  -4   41.74   20.13
   0  -7   4   32.37   11.31
   0  -7   4   51.65   11.37
   0  -7   4   41.67   15.24
   0  -7   4   43.09    8.73
   0  -7   4   48.11   22.75
  -1   7  -4  583.64   45.92
  -1   7  -4  597.11   59.35
   1  -7   4  564.94   40.04
   1  -7   4  582.04   62.57
   1  -7   4  495.36   44.59
   1  -7   4  555.17   50.56
  -2   7  -4   19.00   18.72
  -2   7  -4    8.70    5.37
  -2   7  -4    1.50    6.75
   2  -7   4   18.75   12.37
   2  -7   4   13.11    6.30
   2  -7   4    6.40    8.40
   2  -7   4  -30.95   20.29
  -3   7  -4  370.22   35.69
  -3   7  -4  401.94   29.73
  -3   7  -4  403.69   53.04
   3  -7   4  418.10   55.26
   3  -7   4  373.32   41.35
   3  -7   4  380.50   36.85
   3  -7   4  390.59   30.31
  -4   7  -4    9.10   19.29
  -4   7  -4   18.02    5.65
  -4   7  -4    8.09    6.97
   4  -7   4   37.92   24.72
   4  -7   4   12.66    5.58
   4  -7   4   23.47   13.91
   4  -7   4   24.78   11.77
  -5   7  -4  240.93   27.00
  -5   7  -4  230.90   46.97
  -5   7  -4  190.63   18.36
   5  -7   4  286.94   42.98
   5  -7   4  266.56   34.63
  -6   7  -4   31.92   30.43
  -6   7  -4   11.41    4.99
  -6   7  -4  -27.93   49.63
  -6   7  -4   11.40    8.64
   6  -7   4   21.74   14.62
   6  -7   4   31.72   12.44
  -7   7  -4  163.30   26.62
  -7   7  -4  212.66   72.67
  -7   7  -4  219.27   17.58
  -7   7  -4  165.10   50.28
   7  -7   4  234.35   39.39
   7  -7   4  217.03   33.13
  -8   7  -4   21.54   12.50
  -8   7  -4   -4.72   29.08
  -8   7  -4   -7.80   49.24
  -8   7  -4   25.53    5.45
   8  -7   4   19.81   12.88
   8  -7   4   25.80   16.28
   9   6  -4   62.81   12.83
   9   6  -4   32.60   10.26
   8   6  -4  187.27   18.79
   8   6  -4  153.00   33.98
   8   6  -4  136.80   20.49
  -8  -6   4  101.82   23.20
   7   6  -4    5.81    6.63
   7   6  -4   20.82    8.00
   7   6  -4   22.96   23.67
  -7  -6   4   17.48   15.01
   6   6  -4  159.97   20.20
   6   6  -4  153.40   13.89
   6   6  -4  158.91   33.36
   6   6  -4  171.53   19.06
  -6  -6   4  185.73   30.29
  -6  -6   4  141.11   16.25
   5   6  -4   31.70    7.86
   5   6  -4   12.88    6.59
   5   6  -4    6.21    6.37
  -5  -6   4   21.39   14.19
  -5  -6   4   17.73    5.76
   4   6  -4  246.74   20.83
   4   6  -4  226.17   22.68
   4   6  -4  267.30   22.40
  -4  -6   4  226.51   20.25
  -4  -6   4  203.21   15.99
  -4  -6   4  263.34   33.13
   3   6  -4   61.35   12.48
   3   6  -4   61.94   12.80
   3   6  -4   50.14   20.47
   3   6  -4   75.07   11.27
  -3  -6   4   47.85   19.44
  -3  -6   4   43.62    8.70
  -3  -6   4   57.94   10.54
  -3  -6   4   59.43   10.30
   2   6  -4  441.08   36.29
   2   6  -4  463.48   37.12
   2   6  -4  390.85   46.72
  -2  -6   4  464.08   34.80
  -2  -6   4  445.70   34.84
  -2  -6   4  478.61   33.08
  -2  -6   4  480.26   48.82
   1   6  -4  138.92   18.32
   1   6  -4  191.32   32.64
   1   6  -4  123.96   19.97
  -1  -6   4  150.43   20.41
  -1  -6   4  176.69   32.13
  -1  -6   4  141.70   19.42
  -1  -6   4  154.54   15.08
  -1  -6   4  148.44   23.88
   0   6  -4  424.55   38.72
   0   6  -4  482.27   50.52
   0   6  -4  476.90   38.77
   0  -6   4  480.29   34.66
   0  -6   4  440.27   37.71
   0  -6   4  526.71   38.32
   0  -6   4  513.37   43.38
   0  -6   4  498.39   50.59
  -1   6  -4   55.78   13.97
  -1   6  -4   42.99   20.47
  -1   6  -4   53.49   12.91
   1  -6   4   63.33   12.73
   1  -6   4   46.88   14.97
   1  -6   4   53.35    9.71
   1  -6   4   53.34   13.43
   1  -6   4   57.38   21.71
  -2   6  -4  418.68   46.10
  -2   6  -4  358.79   32.13
   2  -6   4  366.77   36.51
   2  -6   4  348.46   27.51
   2  -6   4  306.45   31.18
   2  -6   4  334.37   49.78
  -3   6  -4   26.55   17.71
  -3   6  -4   30.58    6.99
  -3   6  -4   27.54    9.52
   3  -6   4   29.85    8.03
   3  -6   4   50.14   23.94
   3  -6   4   42.12   15.41
   3  -6   4   40.41   12.86
  -4   6  -4  422.64   32.62
  -4   6  -4  547.14   41.31
  -4   6  -4  496.52   53.25
   4  -6   4  438.98   40.27
   4  -6   4  532.08   36.41
   4  -6   4  554.60   59.97
   4  -6   4  390.17   43.76
  -5   6  -4   24.43    5.76
  -5   6  -4  -13.36   20.91
  -5   6  -4   11.07    8.94
   5  -6   4   22.74   19.07
   5  -6   4   27.02   11.55
   5  -6   4   42.90   16.86
  -6   6  -4  339.67   73.75
  -6   6  -4  319.80   24.19
  -6   6  -4  345.41   32.58
  -6   6  -4  368.48   49.17
   6  -6   4  349.11   35.28
   6  -6   4  308.38   38.85
  -7   6  -4  -46.88   26.36
  -7   6  -4   26.97   43.38
  -7   6  -4   -5.88    5.84
  -7   6  -4    4.55    3.13
   7  -6   4    3.96   10.65
   7  -6   4    5.25    7.01
  -8   6  -4  122.60   11.18
  -8   6  -4  167.89   24.43
  -8   6  -4  183.09   68.74
   8  -6   4  156.26   27.43
   8  -6   4  114.63   27.68
  -9   6  -4  -76.65   37.27
  -9   6  -4   -0.46    0.67
  -9   6  -4   15.80    9.95
  -9   6  -4   21.62   44.98
   9  -6   4   -5.30    8.43
   9  -6   4    7.78    9.82
  10   5  -4   29.16   10.97
   9   5  -4  141.87   19.51
   9   5  -4  139.29   21.42
   9   5  -4  113.23   30.56
  -9  -5   4  119.09   22.35
   8   5  -4   54.99   12.12
   8   5  -4   51.32   12.21
   8   5  -4   38.07   23.66
  -8  -5   4   34.71   16.06
   7   5  -4  168.33   32.53
   7   5  -4  137.42   19.55
   7   5  -4  125.23   18.27
  -7  -5   4  149.42   25.64
   6   5  -4   17.69    5.22
   6   5  -4   22.15    4.07
   6   5  -4   22.31    8.04
   6   5  -4   24.40    8.24
  -6  -5   4    7.68   12.38
  -6  -5   4    7.60    5.84
   5   5  -4  526.86   35.12
   5   5  -4  561.76   39.14
   5   5  -4  464.31   35.40
   5   5  -4  547.03   39.92
  -5  -5   4  523.57   47.42
  -5  -5   4  495.74   37.83
   4   5  -4    7.44    4.64
   4   5  -4    2.12   13.96
   4   5  -4   12.33    5.78
   4   5  -4    2.32    5.12
   4   5  -4    7.99    6.28
  -4  -5   4   11.06    3.89
  -4  -5   4   36.11   14.44
  -4  -5   4    9.43    3.89
  -4  -5   4    9.85    5.17
   3   5  -4  594.06   39.96
   3   5  -4  607.06   41.06
   3   5  -4  562.12   42.23
   3   5  -4  633.07   55.60
   3   5  -4  551.12   38.85
  -3  -5   4  500.67   38.76
  -3  -5   4  561.84   39.56
  -3  -5   4  577.54   52.01
  -3  -5   4  534.27   39.00
   2   5  -4   10.26    5.23
   2   5  -4    7.04    4.20
   2   5  -4   14.15    7.14
   2   5  -4   23.73    8.08
   2   5  -4   -3.81   10.87
  -2  -5   4    6.30    4.40
  -2  -5   4    4.25    5.34
  -2  -5   4    8.35    6.04
  -2  -5   4    4.70   10.46
  -2  -5   4    7.91    6.49
   1   5  -4  415.04   33.41
   1   5  -4  441.69   33.72
   1   5  -4  461.16   44.48
   1   5  -4  405.62   30.47
  -1  -5   4  420.90   35.61
  -1  -5   4  370.17   41.54
  -1  -5   4  389.98   32.00
  -1  -5   4  424.09   32.24
  -1  -5   4  370.45   29.72
   0   5  -4   21.48   13.04
   0   5  -4   14.96    5.72
   0   5  -4   10.73    7.74
   0   5  -4   14.27    7.14
   0  -5   4   22.74    8.78
   0  -5   4   23.29    7.54
   0  -5   4    6.72    4.89
   0  -5   4   24.05   14.16
   0  -5   4    8.77    8.04
  -1   5  -4  359.92   39.20
  -1   5  -4  296.57   25.51
  -1   5  -4  302.82   29.44
  -1   5  -4  321.98   28.41
   1  -5   4  327.59   32.19
   1  -5   4  326.60   28.60
   1  -5   4  335.13   39.80
   1  -5   4  306.07   26.92
   1  -5   4  326.55   25.24
  -2   5  -4   14.33    8.60
  -2   5  -4   43.13   15.70
  -2   5  -4   36.20    9.60
  -2   5  -4   25.11    9.09
   2  -5   4   23.74   11.19
   2  -5   4   39.33    9.48
   2  -5   4   33.04    7.68
   2  -5   4    3.05   14.07
   2  -5   4   21.41    8.94
  -3   5  -4  569.83   41.11
  -3   5  -4  564.70   53.98
   3  -5   4  483.20   36.45
   3  -5   4  439.92   40.17
   3  -5   4  562.18   55.35
   3  -5   4  474.81   44.15
  -4   5  -4   11.69    4.14
  -4   5  -4   -1.24    3.85
  -4   5  -4   24.38   17.38
   4  -5   4    4.00    7.19
   4  -5   4    9.29   16.48
   4  -5   4   11.79   11.29
  -5   5  -4  626.73   43.83
  -5   5  -4  549.43   34.63
  -5   5  -4  538.96   55.49
   5  -5   4  417.63   45.05
   5  -5   4  443.06   41.57
   5  -5   4  525.20   57.64
  -6   5  -4    0.31    2.44
  -6   5  -4    3.20    6.70
  -6   5  -4  -11.69   19.29
   6  -5   4   -0.05    4.86
   6  -5   4   -1.49    7.30
  -7   5  -4  237.58   43.49
  -7   5  -4  160.00   48.79
  -7   5  -4  267.18   26.36
  -7   5  -4  242.64   17.47
   7  -5   4  237.05   31.61
   7  -5   4  243.15   32.96
  -8   5  -4    0.11   36.52
  -8   5  -4   21.92   26.31
  -8   5  -4   -2.83    5.15
  -8   5  -4    1.26    1.89
   8  -5   4    9.55   12.85
   8  -5   4    5.50    7.61
  -9   5  -4  240.02   66.53
  -9   5  -4  218.85   23.83
   9  -5   4  191.34   36.54
   9  -5   4  171.45   28.28
 -10   5  -4   23.49   36.62
 -10   5  -4   10.56   55.63
 -10   5  -4   -0.44    6.42
  10  -5   4    6.23   12.58
  10  -5   4   14.91   10.77
  10   4  -4  147.54   20.92
  10   4  -4  100.21   30.34
  10   4  -4  161.08   24.22
 -10  -4   4  104.31   21.99
   9   4  -4    7.42   22.27
   9   4  -4   12.96    9.15
   9   4  -4   24.75    9.24
  -9  -4   4   44.69   16.60
   8   4  -4  105.69   17.20
   8   4  -4  166.11   22.25
   8   4  -4  148.44   30.57
   8   4  -4  174.79   14.32
  -8  -4   4  118.19   22.98
   7   4  -4   66.02   10.02
   7   4  -4   68.83   23.54
   7   4  -4   88.82   14.11
   7   4  -4   55.48   12.54
  -7  -4   4   74.77   15.72
  -7  -4   4   73.48   17.70
   6   4  -4  491.75   51.44
   6   4  -4  545.95   39.14
   6   4  -4  470.04   37.91
  -6  -4   4  516.69   45.29
   5   4  -4   54.81   11.58
   5   4  -4   57.04    6.30
   5   4  -4   57.99   11.35
   5   4  -4   78.37   20.31
   5   4  -4   65.34    9.38
  -5  -4   4   62.45   16.60
  -5  -4   4   59.58   10.73
   4   4  -4  589.05   42.25
   4   4  -4  586.70   40.08
   4   4  -4  671.27   57.61
   4   4  -4  569.97   39.38
   4   4  -4  635.60   43.74
  -4  -4   4  569.66   50.74
  -4  -4   4  618.39   42.47
  -4  -4   4  599.45   39.02
  -4  -4   4  612.44   39.16
   3   4  -4   -1.18    2.80
   3   4  -4   -4.96    9.58
   3   4  -4    2.41    4.26
   3   4  -4   -0.19    4.03
   3   4  -4    3.51    4.22
  -3  -4   4    3.08    3.95
  -3  -4   4   -2.39    9.41
  -3  -4   4    6.63    4.48
  -3  -4   4   -4.08    3.64
   2   4  -4 1050.29   75.32
   2   4  -4  908.76   62.27
   2   4  -4 1050.29   60.99
   2   4  -4  879.49   59.19
   2   4  -4  829.40   60.34
  -2  -4   4 1015.30   63.57
  -2  -4   4  904.31   60.15
  -2  -4   4  850.97   60.18
  -2  -4   4  898.59   60.97
  -2  -4   4  971.22   72.12
   1   4  -4   55.32   15.66
   1   4  -4   52.52   10.73
   1   4  -4   51.86   10.63
   1   4  -4   56.92    9.16
   1   4  -4   59.23    9.25
  -1  -4   4   40.58    8.40
  -1  -4   4   46.61    9.74
  -1  -4   4   53.17   11.86
  -1  -4   4   49.35   10.38
  -1  -4   4   62.78   17.93
   0   4  -4 1132.94   73.38
   0   4  -4 1148.96   70.90
   0   4  -4 1185.05   84.10
   0   4  -4 1079.06   73.41
   0  -4   4 1052.86   72.24
   0  -4   4 1047.87   70.25
   0  -4   4 1080.24   72.28
   0  -4   4 1123.92   83.01
   0  -4   4 1140.42   76.12
  -1   4  -4   95.62   21.34
  -1   4  -4   99.35   15.30
  -1   4  -4   76.63   14.37
  -1   4  -4   75.99   11.82
   1  -4   4  106.35   15.19
   1  -4   4   71.45   11.04
   1  -4   4   55.73   14.20
   1  -4   4   81.53   13.59
   1  -4   4  114.79   24.18
  -2   4  -4  849.34   56.01
  -2   4  -4  788.22   53.32
  -2   4  -4  826.29   57.75
  -2   4  -4  858.14   66.92
   2  -4   4  757.02   66.24
   2  -4   4  777.54   52.55
   2  -4   4  815.96   55.93
   2  -4   4  739.38   58.97
   2  -4   4  754.38   54.40
  -3   4  -4    2.79    5.43
  -3   4  -4    7.30    5.53
  -3   4  -4    4.40    6.80
  -3   4  -4   16.94   13.43
   3  -4   4   -0.67    5.25
   3  -4   4   -0.75    3.51
   3  -4   4    1.37    7.45
   3  -4   4    0.08    3.43
   3  -4   4   -5.67    8.24
  -4   4  -4  416.08   45.30
  -4   4  -4  407.73   30.99
  -4   4  -4  420.95   27.06
  -4   4  -4  353.15   35.36
  -4   4  -4  400.16   32.89
   4  -4   4  375.78   33.67
   4  -4   4  386.85   31.75
   4  -4   4  407.79   38.61
   4  -4   4  412.95   46.18
  -5   4  -4   10.52   14.56
  -5   4  -4   -3.59    3.36
  -5   4  -4    5.17    2.63
  -5   4  -4    3.34    4.68
   5  -4   4   16.80   15.95
   5  -4   4   -1.53    6.21
   5  -4   4   11.15    8.17
  -6   4  -4  292.49   37.73
  -6   4  -4  245.05   24.26
  -6   4  -4  254.35   17.28
   6  -4   4  199.04   37.78
   6  -4   4  255.23   26.56
   6  -4   4  207.56   29.01
  -7   4  -4   35.05   10.33
  -7   4  -4    9.63   19.93
  -7   4  -4  -14.64   32.34
  -7   4  -4   33.17    4.48
   7  -4   4   24.85    9.75
   7  -4   4   39.03   15.40
  -8   4  -4  265.90   61.69
  -8   4  -4  232.15   15.54
  -8   4  -4  300.17   49.47
  -8   4  -4  257.21   24.54
   8  -4   4  243.08   32.07
   8  -4   4  246.71   38.10
  -9   4  -4  -14.87   25.57
  -9   4  -4   12.11    8.03
  -9   4  -4   14.67   36.25
   9  -4   4    2.00   11.06
   9  -4   4   17.37    9.04
 -10   4  -4  170.70   19.09
 -10   4  -4  140.17   62.51
  10  -4   4  140.14   30.84
  10  -4   4  135.25   24.78
  11   3  -4  133.37   21.10
  11   3  -4  141.45   23.76
  10   3  -4   14.35    9.09
  10   3  -4   -2.82    5.76
  10   3  -4   30.35   24.56
 -10  -3   4    5.66   15.28
   9   3  -4  178.23   19.00
   9   3  -4  212.06   26.08
   9   3  -4  160.66   16.57
   9   3  -4  144.57   33.12
  -9  -3   4  127.33   24.71
   8   3  -4    0.08    3.56
   8   3  -4    7.15    7.06
   8   3  -4   -0.87   17.24
   8   3  -4    3.56    5.89
  -8  -3   4    7.46   12.41
   7   3  -4  559.30   55.80
   7   3  -4  624.24   43.17
   7   3  -4  544.87   38.38
   7   3  -4  654.29   45.10
  -7  -3   4  581.08   50.03
  -7  -3   4  516.68   42.80
   6   3  -4  106.71   15.85
   6   3  -4  127.11   17.50
   6   3  -4  110.80   11.30
   6   3  -4  113.51   23.93
  -6  -3   4  114.18   15.96
  -6  -3   4  133.69   22.62
   5   3  -4  351.60   29.05
   5   3  -4  432.62   42.35
   5   3  -4  347.03   29.00
  -5  -3   4  380.25   29.26
  -5  -3   4  367.39   22.80
  -5  -3   4  361.14   35.47
   4   3  -4   18.99    4.99
   4   3  -4    5.04   11.64
   4   3  -4    8.42    5.35
   4   3  -4   13.63    3.35
   4   3  -4   19.80    6.67
  -4  -3   4   19.07    5.05
  -4  -3   4   18.92    4.86
  -4  -3   4    7.97    9.43
  -4  -3   4   17.74    5.78
   3   3  -4  924.02   60.02
   3   3  -4  893.93   58.88
   3   3  -4  905.81   70.60
   3   3  -4  842.99   56.01
   3   3  -4  914.89   56.86
  -3  -3   4  952.15   58.46
  -3  -3   4  947.15   67.97
  -3  -3   4  854.25   56.98
  -3  -3   4  886.19   58.64
   2   3  -4   26.94   12.07
   2   3  -4   38.66    6.99
   2   3  -4   56.62    8.78
   2   3  -4   20.47    6.09
   2   3  -4   13.36    5.97
  -2  -3   4   17.37    5.62
  -2  -3   4   35.29    7.21
  -2  -3   4   33.95   11.46
  -2  -3   4   12.51    6.16
  -2  -3   4   50.49    9.44
   1   3  -4 1451.68   97.10
   1   3  -4 1518.39   95.93
   1   3  -4 1625.96   99.04
   1   3  -4 1683.66  109.81
  -1  -3   4 1509.31   99.08
  -1  -3   4 1649.79   97.42
  -1  -3   4 1591.91  107.43
  -1  -3   4 1580.04   98.30
   0   3  -4  112.76   15.62
   0   3  -4  145.02   12.53
   0   3  -4   99.42   19.91
   0  -3   4   81.79   12.22
   0  -3   4  113.26   20.48
   0  -3   4  167.18   17.17
   0  -3   4  104.86   12.36
  -1   3  -4 1294.12   80.45
  -1   3  -4 1256.41   81.06
  -1   3  -4 1247.77   89.40
  -1   3  -4 1273.24   78.14
   1  -3   4 1252.20   79.70
   1  -3   4 1243.12   82.89
   1  -3   4 1166.14   79.43
   1  -3   4 1241.10   78.07
   1  -3   4 1224.53   88.93
  -2   3  -4  131.38   14.53
  -2   3  -4  136.47   16.17
  -2   3  -4  113.47   12.17
  -2   3  -4  140.89   23.72
   2  -3   4  120.65   13.71
   2  -3   4  105.08   21.41
   2  -3   4  150.21   15.20
   2  -3   4  126.79   20.16
   2  -3   4  126.86   12.73
  -3   3  -4 1149.95   80.71
  -3   3  -4 1359.48   94.94
  -3   3  -4 1436.69   84.50
  -3   3  -4 1268.06   85.71
   3  -3   4 1327.02   95.53
   3  -3   4 1226.99   87.40
   3  -3   4 1297.39   83.03
   3  -3   4 1329.77   84.28
  -4   3  -4   -3.12    8.15
  -4   3  -4    0.96    3.71
  -4   3  -4    7.58    7.37
  -4   3  -4    5.20    4.36
   4  -3   4    3.15    7.30
   4  -3   4   -2.40    4.16
   4  -3   4   -4.26    6.40
   4  -3   4   -1.97    3.70
  -5   3  -4  533.49   31.24
  -5   3  -4  415.60   39.33
  -5   3  -4  493.54   37.45
  -5   3  -4  502.82   49.28
  -5   3  -4  481.81   35.22
   5  -3   4  525.56   37.58
   5  -3   4  528.20   49.90
   5  -3   4  482.98   38.76
   5  -3   4  445.55   42.19
  -6   3  -4    5.78   14.10
  -6   3  -4    1.27    1.56
  -6   3  -4    4.64    4.72
  -6   3  -4   -2.47    3.86
   6  -3   4   10.97   10.17
   6  -3   4   -3.28    5.14
   6  -3   4   15.14   13.12
  -7   3  -4  276.10   18.03
  -7   3  -4  300.15   24.32
  -7   3  -4  321.67   26.80
  -7   3  -4  280.63   38.22
   7  -3   4  315.80   28.68
   7  -3   4  287.84   34.04
  -8   3  -4   24.64    7.24
  -8   3  -4   40.46   21.07
  -8   3  -4   14.61   25.44
  -8   3  -4   33.85    9.32
   8  -3   4   27.89   10.71
   8  -3   4   39.56   16.55
  -9   3  -4  188.09   19.67
  -9   3  -4  209.54   19.03
  -9   3  -4  170.47   50.18
  -9   3  -4  196.81   39.96
   9  -3   4  187.63   27.05
   9  -3   4  182.06   33.70
 -10   3  -4  -75.38   35.52
 -10   3  -4   -3.44    4.62
 -10   3  -4    3.03    5.44
 -10   3  -4  -21.39   25.39
  10  -3   4    2.60   11.22
  10  -3   4    1.45    6.41
 -11   3  -4  117.91   13.47
  11  -3   4  130.21   29.71
  11  -3   4  153.30   25.62
  11   2  -4   33.83   10.79
  11   2  -4   13.79    9.43
  10   2  -4   99.06   19.44
  10   2  -4  137.58   20.35
  10   2  -4  154.73   35.67
 -10  -2   4  155.71   29.72
   9   2  -4   29.90    9.84
   9   2  -4   59.37   23.60
   9   2  -4   40.46   11.82
   9   2  -4   29.61    6.93
  -9  -2   4    6.42   15.41
   8   2  -4  573.43   40.71
   8   2  -4  500.80   35.68
   8   2  -4  282.03   71.22
   8   2  -4  570.11   42.54
  -8  -2   4  546.61   50.30
   7   2  -4   50.37   11.84
   7   2  -4   76.53   10.17
   7   2  -4   60.63    9.40
   7   2  -4   13.78   16.51
   7   2  -4   65.22   12.12
  -7  -2   4   68.75   12.04
  -7  -2   4   46.28   15.69
   6   2  -4  646.42   44.18
   6   2  -4  625.65   40.53
   6   2  -4  573.99   41.10
   6   2  -4  637.62   45.41
   6   2  -4  619.85   56.26
  -6  -2   4  635.76   53.19
  -6  -2   4  591.41   44.34
   5   2  -4  111.86   25.63
   5   2  -4   88.25   11.44
   5   2  -4   81.51   13.27
   5   2  -4  121.93   15.41
   5   2  -4   73.09    8.69
  -5  -2   4   96.25   13.74
  -5  -2   4  114.28   20.34
  -5  -2   4   84.04    8.09
  -5  -2   4   83.18    8.22
   4   2  -4 1153.45   69.17
   4   2  -4 1086.86   80.39
   4   2  -4 1080.68   68.78
  -4  -2   4  977.45   67.97
  -4  -2   4 1029.95   65.95
  -4  -2   4 1024.93   65.03
  -4  -2   4 1075.15   77.32
   3   2  -4  120.87   15.15
   3   2  -4   90.62   19.62
   3   2  -4   97.03   13.03
   3   2  -4  101.95    8.12
   3   2  -4   95.36    9.49
  -3  -2   4   68.24   16.67
  -3  -2   4   95.85   12.80
  -3  -2   4   97.17   10.86
  -3  -2   4   88.69    9.54
  -3  -2   4  109.72    9.17
   2   2  -4 1613.06  111.40
  -2  -2   4 1656.52  100.54
  -2  -2   4 1594.04  100.58
  -2  -2   4 1645.50  108.89
   1   2  -4  125.93   11.65
   1   2  -4   96.14   11.10
   1   2  -4  103.82   19.66
   1   2  -4   90.57   13.66
   1   2  -4  114.37   10.56
  -1  -2   4   90.28   13.20
  -1  -2   4  129.66   20.92
  -1  -2   4  121.88   11.66
  -1  -2   4   91.78   12.65
  -1  -2   4  110.48   12.60
   0   2  -4 1357.24   96.51
   0   2  -4 1439.68   86.31
   0  -2   4 1440.39   89.52
   0  -2   4 1410.19   95.92
   0  -2   4 1333.28   87.92
   0  -2   4 1456.53   87.49
  -1   2  -4   78.18   10.17
  -1   2  -4   49.54   13.76
  -1   2  -4   71.93   11.42
  -1   2  -4   61.93   11.30
   1  -2   4   78.74   11.05
   1  -2   4   81.39   16.39
   1  -2   4   75.97   11.51
   1  -2   4   63.80   12.48
   1  -2   4   76.96   10.45
  -2   2  -4 1865.03  119.96
  -2   2  -4 1943.59  127.90
   2  -2   4 1921.47  121.98
   2  -2   4 2002.56  128.42
  -3   2  -4  231.76   18.67
  -3   2  -4  195.79   16.60
  -3   2  -4  172.00   18.74
  -3   2  -4  226.39   26.30
   3  -2   4  227.38   25.85
   3  -2   4  188.27   21.48
   3  -2   4  189.87   18.08
   3  -2   4  188.82   17.33
  -4   2  -4  995.80   64.89
  -4   2  -4  873.18   59.18
  -4   2  -4  986.15   72.07
  -4   2  -4  921.95   61.31
   4  -2   4  875.69   71.39
   4  -2   4  935.66   66.77
   4  -2   4  913.49   61.05
   4  -2   4  945.83   62.05
  -5   2  -4   35.36   10.43
  -5   2  -4   36.99   14.90
  -5   2  -4   23.10    7.21
  -5   2  -4   28.07    6.86
  -5   2  -4   21.43    3.13
   5  -2   4   24.94   10.99
   5  -2   4   41.17    8.97
   5  -2   4   29.43    8.71
   5  -2   4   28.68   13.71
  -6   2  -4  625.53   53.11
  -6   2  -4  756.06   48.55
  -6   2  -4  797.01   43.32
  -6   2  -4  767.29   63.27
  -6   2  -4  712.87   49.73
   6  -2   4  724.71   62.92
   6  -2   4  727.19   50.68
   6  -2   4  682.19   56.96
   6  -2   4  702.11   51.93
  -7   2  -4   39.35    8.84
  -7   2  -4   42.27    8.83
  -7   2  -4   36.25   18.28
   7  -2   4   28.16    9.71
   7  -2   4   49.35   15.60
  -8   2  -4  592.94   70.85
  -8   2  -4  613.74   40.91
  -8   2  -4  597.79   39.74
   8  -2   4  496.48   49.40
   8  -2   4  537.52   44.47
  -9   2  -4   25.84    6.90
  -9   2  -4    1.73   18.76
  -9   2  -4    6.91   25.99
  -9   2  -4   35.03    7.75
   9  -2   4   23.34    9.66
   9  -2   4   28.08   13.98
 -10   2  -4  145.73   44.55
 -10   2  -4  138.24   13.15
  10  -2   4  130.51   21.86
  10  -2   4  108.45   24.87
 -11   2  -4   -2.11    2.08
 -11   2  -4   -9.36   61.83
 -11   2  -4   -0.99   26.45
  11  -2   4    1.29    9.67
  11  -2   4   -1.60    6.45
  11   1  -4   83.12   17.79
  11   1  -4   63.92   39.58
  11   1  -4  102.89   19.21
 -11  -1   4   52.90   28.29
  10   1  -4   37.62   26.31
  10   1  -4   67.18   14.99
  10   1  -4   62.86   15.65
 -10  -1   4   67.36   24.54
   9   1  -4  256.04   24.16
   9   1  -4  194.29   26.99
   9   1  -4  232.50   21.93
  -9  -1   4  210.46   34.95
   8   1  -4   46.87    8.83
   8   1  -4   80.03   15.11
   8   1  -4   51.44   11.87
   8   1  -4   69.18    9.72
  -8  -1   4   74.05   21.43
   7   1  -4  238.98   37.19
   7   1  -4  253.91   19.23
   7   1  -4  198.67   18.32
   7   1  -4  251.21   23.61
   7   1  -4  217.79   21.62
  -7  -1   4  257.24   23.59
  -7  -1   4  268.57   33.26
   6   1  -4    4.72    3.49
   6   1  -4    2.31    5.25
   6   1  -4    2.14    5.42
   6   1  -4   -1.46   11.63
   6   1  -4    1.62    2.91
  -6  -1   4   -0.78    3.52
  -6  -1   4    2.25    2.79
  -6  -1   4   -5.60    9.03
  -6  -1   4   -0.75    2.20
   5   1  -4  514.66   31.22
   5   1  -4  504.99   31.79
   5   1  -4  398.98   33.02
   5   1  -4  459.12   34.60
   5   1  -4  372.27   42.37
  -5  -1   4  496.79   43.98
  -5  -1   4  472.00   30.02
  -5  -1   4  459.56   34.15
  -5  -1   4  420.08   30.66
   4   1  -4  242.22   20.46
   4   1  -4  246.58   29.73
   4   1  -4  231.64   17.62
   4   1  -4  232.81   20.55
   4   1  -4  212.71   17.98
  -4  -1   4  232.75   18.86
  -4  -1   4  250.36   17.71
  -4  -1   4  268.17   28.68
  -4  -1   4  264.21   20.88
   3   1  -4 1893.69  110.00
   3   1  -4 1770.29  122.92
  -3  -1   4 1867.97  112.17
  -3  -1   4 1738.72  120.44
   2   1  -4  283.78   31.03
   2   1  -4  366.37   24.41
   2   1  -4  303.19   23.06
   2   1  -4  297.14   19.60
  -2  -1   4  256.88   20.38
  -2  -1   4  332.87   23.43
  -2  -1   4  298.00   22.66
  -2  -1   4  302.46   21.22
  -2  -1   4  267.06   28.85
   1   1  -4 1747.38  119.29
  -1  -1   4 1850.90  118.13
   0   1  -4  517.91   37.87
   0   1  -4  637.58   39.87
   0   1  -4  622.45   39.11
   0   1  -4  586.76   46.94
   0   1  -4  567.35   37.25
   0  -1   4  493.25   38.62
   0  -1   4  571.76   37.83
   0  -1   4  632.57   39.75
   0  -1   4  625.28   39.15
  -1   1  -4 3023.98  190.11
   1  -1   4 3053.67  189.06
  -2   1  -4   17.49    8.80
  -2   1  -4   18.67    5.64
  -2   1  -4   19.82    4.73
  -2   1  -4   31.02    7.34
   2  -1   4   19.82    6.94
   2  -1   4   22.04    5.77
   2  -1   4   12.83    7.72
   2  -1   4   36.32    6.99
   2  -1   4   28.54    6.35
  -3   1  -4 1238.33   89.31
  -3   1  -4 1400.87   84.41
  -3   1  -4 1259.18   81.47
  -3   1  -4 1389.85   80.29
   3  -1   4 1328.06   81.62
   3  -1   4 1212.45   88.87
   3  -1   4 1341.49   85.78
   3  -1   4 1244.71   81.42
  -4   1  -4   60.84   11.99
  -4   1  -4   71.38   10.55
  -4   1  -4   65.58    5.31
  -4   1  -4   72.96    8.08
  -4   1  -4   56.23   14.79
   4  -1   4   39.73   12.72
   4  -1   4   61.88   13.91
   4  -1   4   69.49   10.76
   4  -1   4   73.97   10.83
  -5   1  -4  879.53   54.14
  -5   1  -4  895.63   59.97
  -5   1  -4  897.48   55.77
  -5   1  -4  726.64   66.92
   5  -1   4  822.00   61.42
   5  -1   4  828.37   56.42
   5  -1   4  866.93   66.00
   5  -1   4  850.93   56.13
  -6   1  -4   22.72    5.68
  -6   1  -4   34.57    9.32
  -6   1  -4   32.65    6.86
   6  -1   4   17.03   10.10
   6  -1   4   29.89    7.32
   6  -1   4   10.15    5.86
   6  -1   4    6.87    9.65
  -7   1  -4  662.84   56.32
  -7   1  -4  686.16   41.92
  -7   1  -4  700.46   42.75
  -7   1  -4  612.50   49.53
   7  -1   4  583.79   44.06
   7  -1   4  559.45   50.64
   7  -1   4  593.94   45.48
  -8   1  -4   13.86   14.07
  -8   1  -4   11.21   21.89
  -8   1  -4   10.21    4.80
  -8   1  -4   10.87    4.85
   8  -1   4   12.52   10.47
   8  -1   4   13.38    7.06
  -9   1  -4  545.24   64.64
  -9   1  -4  473.66   48.82
   9  -1   4  416.97   36.24
   9  -1   4  376.80   41.00
 -10   1  -4   34.03   20.82
 -10   1  -4   17.00    2.66
 -10   1  -4   34.33   30.18
  10  -1   4   25.89    9.99
  10  -1   4    1.31   10.34
 -11   1  -4  165.76   46.15
  11  -1   4  183.81   32.47
  11  -1   4  144.12   23.17
  11   0  -4    6.58   32.44
  11   0  -4   20.01    9.93
  11   0  -4   12.92    9.34
 -11   0   4  -15.74   25.00
  10   0  -4  202.36   27.56
  10   0  -4  193.35   25.85
  10   0  -4  199.61   44.74
 -10   0   4  186.01   37.97
   9   0  -4  153.35   21.53
   9   0  -4   98.46   10.77
   9   0  -4  106.42   17.95
  -9   0   4  122.43   27.51
   8   0  -4  464.87   32.18
   8   0  -4  512.86   39.12
   8   0  -4  456.67   36.93
   8   0  -4  415.94   53.53
   8   0  -4  449.74   33.48
  -8   0   4  474.24   32.44
  -8   0   4  447.39   49.17
  -8   0   4  473.15   28.96
   7   0  -4   78.04   10.63
   7   0  -4   78.58   13.56
   7   0  -4   64.55   13.41
   7   0  -4   71.01    9.51
   7   0  -4   50.33   19.19
  -7   0   4   51.99    7.74
  -7   0   4   71.29   12.64
  -7   0   4   62.50    7.10
  -7   0   4   56.62   19.10
   6   0  -4  547.46   38.44
   6   0  -4  607.18   42.58
   6   0  -4  617.22   58.15
   6   0  -4  631.66   43.73
   6   0  -4  553.89   38.86
  -6   0   4  554.29   42.49
  -6   0   4  597.82   37.53
  -6   0   4  643.89   55.29
  -6   0   4  584.14   39.09
   5   0  -4   25.89   13.43
   5   0  -4   18.66    6.24
   5   0  -4    9.39    3.85
   5   0  -4   12.95    5.75
   5   0  -4   16.43    4.48
  -5   0   4    2.35    8.33
  -5   0   4   18.41    6.02
  -5   0   4   15.22    4.25
  -5   0   4   17.04    5.31
   4   0  -4 2326.17  152.99
  -4   0   4 2188.57  139.72
  -4   0   4 2384.46  151.26
   3   0  -4   21.10    6.27
   3   0  -4   10.19    3.59
   3   0  -4    3.83    8.55
   3   0  -4    9.05    3.33
   3   0  -4    4.15    4.41
  -3   0   4   13.86    4.75
  -3   0   4   13.26    4.75
  -3   0   4   15.27    9.34
  -3   0   4   11.36    3.68
   2   0  -4 1523.86  106.02
  -2   0   4 1562.83   96.00
  -2   0   4 1594.67  105.43
   1   0  -4  802.87   52.39
   1   0  -4  844.43   52.20
   1   0  -4  839.15   61.77
  -1   0   4  757.44   51.76
  -1   0   4  823.87   59.75
  -1   0   4  776.62   52.28
  -1   0   4  820.28   50.30
   0   0  -4 2140.27  141.22
   0   0   4 2258.54  140.30
  -1   0  -4  559.92   40.19
  -1   0  -4  643.11   48.18
  -1   0  -4  681.76   41.05
   1   0   4  645.66   46.51
   1   0   4  634.08   39.26
   1   0   4  581.07   40.07
   1   0   4  560.51   40.13
  -2   0  -4  822.40   66.36
   2   0   4  865.84   60.20
   2   0   4  987.49   66.91
   2   0   4 1121.36   63.69
   2   0   4 1018.96   59.80
   2   0   4  935.36   60.53
  -3   0  -4   32.14    3.21
  -3   0  -4   36.59    8.33
  -3   0  -4   36.03    6.39
  -3   0  -4   34.07    5.89
  -3   0  -4   24.93    9.22
   3   0   4   31.36    9.41
   3   0   4   14.42    7.06
   3   0   4   36.54    7.00
   3   0   4   33.52    6.24
   4   0   4 2180.56  139.47
  -5   0  -4    9.43    6.95
  -5   0  -4   17.86    6.72
  -5   0  -4   11.71    4.07
   5   0   4    3.84    6.39
   5   0   4   16.84    9.32
   5   0   4    7.60    4.28
   5   0   4    8.90    4.22
  -6   0  -4  487.37   34.20
  -6   0  -4  562.76   40.94
  -6   0  -4  545.82   45.20
   6   0   4  534.14   46.29
   6   0   4  547.42   36.97
   6   0   4  514.32   37.09
   6   0   4  531.50   42.94
  -7   0  -4   40.22   13.75
  -7   0  -4   23.22    4.89
  -7   0  -4   29.69    8.63
   7   0   4   25.77   10.60
   7   0   4   34.90    8.64
   7   0   4   15.44    5.30
  -8   0  -4  259.93   15.22
  -8   0  -4  296.56   45.11
  -8   0  -4  259.05   30.96
  -8   0  -4  198.39   15.18
   8   0   4  192.52   19.52
   8   0   4  232.37   27.36
   8   0   4  235.96   21.52
  -9   0  -4   33.01   21.66
  -9   0  -4   29.38   15.91
   9   0   4   25.30    8.44
   9   0   4   26.76   13.00
 -10   0  -4  295.00   49.16
 -10   0  -4  361.34   41.18
  10   0   4  315.29   29.22
  10   0   4  287.48   34.89
 -11   0  -4    0.29   18.81
 -11   0  -4   -7.14   28.81
  11   0   4    6.46    7.82
  11   0   4    9.89   11.79
 -12   0  -4   42.25   28.63
  12   0   4  116.80   21.73
  12   0   4  168.97   30.66
  12   0   4  143.74   21.48
  12  -1  -4   10.64    9.54
 -12   1   4  -30.48   28.22
  11  -1  -4  112.53   43.77
  11  -1  -4   93.87   19.81
  11  -1  -4  159.16   23.40
 -11   1   4   92.33   34.79
  10  -1  -4   26.64    5.68
  10  -1  -4   21.44    9.24
  10  -1  -4   46.55   29.68
  10  -1  -4   26.33   10.24
 -10   1   4   22.55    4.84
 -10   1   4    7.19   24.34
   9  -1  -4  224.90   18.89
   9  -1  -4  260.35   25.57
   9  -1  -4  300.65   27.84
  -9   1   4  209.27   18.00
  -9   1   4  281.10   18.76
  -9   1   4  271.38   44.21
   8  -1  -4  136.73   19.74
   8  -1  -4  153.80   14.23
   8  -1  -4  134.32   12.15
   8  -1  -4  125.40   33.22
   8  -1  -4  155.94   21.56
  -8   1   4  111.48   12.75
  -8   1   4  184.21   33.93
  -8   1   4  127.19   11.71
   7  -1  -4  550.72   41.51
   7  -1  -4  542.53   35.64
   7  -1  -4  562.81   57.47
   7  -1  -4  598.85   41.62
   7  -1  -4  466.13   36.74
  -7   1   4  498.00   35.03
  -7   1   4  579.81   37.69
  -7   1   4  515.47   43.59
  -7   1   4  571.40   55.96
   6  -1  -4  130.54   12.11
   6  -1  -4  108.36   10.39
   6  -1  -4  112.90   16.51
   6  -1  -4  116.16   16.68
   6  -1  -4  130.97   29.28
  -6   1   4  109.18   12.35
  -6   1   4  109.71   10.36
  -6   1   4  122.72   16.50
  -6   1   4   89.76   22.37
  -6   1   4  105.12   10.43
   5  -1  -4 1423.78   86.18
   5  -1  -4 1374.08  104.13
   5  -1  -4 1397.26   89.45
   5  -1  -4 1381.33   89.09
   5  -1  -4 1378.63   85.07
  -5   1   4 1350.58   87.40
  -5   1   4 1416.45   89.28
  -5   1   4 1493.55  103.25
   4  -1  -4  914.94   59.28
   4  -1  -4  956.95   59.33
   4  -1  -4  909.67   55.64
   4  -1  -4  890.83   71.82
   4  -1  -4  867.05   56.14
  -4   1   4  822.46   55.16
  -4   1   4  983.70   71.61
  -4   1   4  927.53   58.31
  -4   1   4  824.44   55.68
  -4   1   4  944.88   59.22
   3  -1  -4 1018.81   77.89
   3  -1  -4 1000.60   66.62
   3  -1  -4 1085.04   66.82
   3  -1  -4 1146.24   64.56
  -3   1   4 1105.91   64.13
  -3   1   4 1006.00   66.16
  -3   1   4  957.34   75.59
  -3   1   4  963.34   65.90
   2  -1  -4  132.37   10.71
   2  -1  -4   95.91   19.49
   2  -1  -4  137.63   12.70
   2  -1  -4  135.99   13.43
   2  -1  -4  136.75   11.15
  -2   1   4  156.73   11.34
  -2   1   4  138.89   13.00
  -2   1   4  146.99   22.99
  -2   1   4  150.77   13.11
  -2   1   4  139.65   11.12
   1  -1  -4 3156.93  196.49
  -1   1   4 3108.74  195.51
   0  -1  -4   76.94   15.09
   0  -1  -4   56.97    6.34
   0  -1  -4   54.22    5.68
   0  -1  -4   60.88    8.68
   0  -1  -4   69.53    9.37
   0   1   4   65.11   13.28
   0   1   4   84.00   10.27
   0   1   4   68.97   10.00
   0   1   4   71.03    7.35
   0   1   4   71.01    5.97
   0   1   4   56.08    6.32
  -1  -1  -4 4733.46  290.11
   1   1   4 4829.78  288.52
  -2  -1  -4   67.99    9.77
  -2  -1  -4   42.02    4.98
  -2  -1  -4   45.76    7.00
  -2  -1  -4   43.90    4.18
   2   1   4   57.23    8.03
   2   1   4   47.60    7.39
   2   1   4   60.42    9.49
   2   1   4   45.09    4.31
   2   1   4   41.15    9.90
   2   1   4   47.33    6.25
  -3  -1  -4 1162.12   80.38
   3   1   4 1216.84   78.80
  -4  -1  -4  208.05   14.10
  -4  -1  -4  266.43   19.70
  -4  -1  -4  188.19   14.52
  -4  -1  -4  182.22   12.65
  -4  -1  -4  192.60   21.63
   4   1   4  246.73   20.64
   4   1   4  172.45   19.79
   4   1   4  229.26   15.78
   4   1   4  211.33   12.82
   4   1   4  199.41   15.82
  -5  -1  -4  906.02   65.85
   5   1   4 1074.49   64.90
   5   1   4  918.34   65.47
   5   1   4  955.55   58.36
   5   1   4  834.57   58.25
  -6  -1  -4   20.24    9.12
   6   1   4   11.35    6.72
   6   1   4   16.08    9.37
   6   1   4   17.78    4.64
  -7  -1  -4  486.52   35.85
  -7  -1  -4  379.47   37.49
   7   1   4  410.33   30.51
   7   1   4  431.36   31.07
   7   1   4  465.74   37.93
  -8  -1  -4   10.53   11.02
  -8  -1  -4   26.04    7.58
  -8  -1  -4   34.97   16.75
   8   1   4   18.26    6.45
   8   1   4   26.45    6.53
   8   1   4   31.69   11.97
  -9  -1  -4  357.50   45.91
  -9  -1  -4  441.88   40.33
   9   1   4  364.45   36.60
   9   1   4  382.09   30.50
   9   1   4  387.20   29.49
 -10  -1  -4   25.97   15.25
 -10  -1  -4   26.66   20.82
  10   1   4   11.52    6.78
  10   1   4   24.87   13.33
 -11  -1  -4  195.53   32.31
 -11  -1  -4  210.09   39.42
  11   1   4  178.53   20.95
  11   1   4  219.97   33.12
 -12  -1  -4    3.18   20.80
  12   1   4   15.21   10.98
  12   1   4    4.80   10.74
  12   1   4   10.56    8.11
  12  -2  -4   90.82   19.34
 -12   2   4   -6.97   30.61
  11  -2  -4   27.95   11.45
  11  -2  -4    9.91    9.59
 -11   2   4   23.77   32.24
  10  -2  -4  157.23   24.18
  10  -2  -4  160.11   13.65
  10  -2  -4  191.20   25.93
  10  -2  -4  220.67   50.22
 -10   2   4  141.57   15.59
 -10   2   4  146.52   41.46
   9  -2  -4    0.06    2.70
   9  -2  -4    0.43    4.77
   9  -2  -4   -0.74    5.69
  -9   2   4    5.40    5.03
  -9   2   4    0.12    4.85
  -9   2   4  -25.18   19.64
  -9   2   4   -3.74    2.82
   8  -2  -4  544.36   42.12
   8  -2  -4  569.68   35.30
   8  -2  -4  556.72   42.25
   8  -2  -4  525.27   61.47
  -8   2   4  561.85   38.24
  -8   2   4  439.35   37.19
  -8   2   4  472.23   57.11
   7  -2  -4   58.23   23.93
   7  -2  -4   44.57   11.27
   7  -2  -4   72.73   14.00
   7  -2  -4   64.23    8.75
   7  -2  -4   53.59   10.38
  -7   2   4   66.66    9.39
  -7   2   4   57.02    9.32
  -7   2   4   78.95   12.99
  -7   2   4   52.87   10.73
  -7   2   4   40.26   21.77
   6  -2  -4 1250.88   79.08
   6  -2  -4 1142.96   73.18
   6  -2  -4 1119.36   75.30
   6  -2  -4 1264.73   79.37
   6  -2  -4 1160.47   96.40
  -6   2   4 1237.73   74.26
  -6   2   4 1259.28   78.85
  -6   2   4 1122.70   76.07
  -6   2   4 1174.01   76.83
  -6   2   4 1275.72   95.90
   5  -2  -4  173.34   17.08
   5  -2  -4  125.31   27.90
   5  -2  -4  205.69   14.29
   5  -2  -4  165.51   15.27
   5  -2  -4  158.55   17.36
  -5   2   4  188.47   17.46
  -5   2   4  174.44   16.84
  -5   2   4  196.22   14.93
  -5   2   4  193.05   32.46
  -5   2   4  173.92   14.30
  -5   2   4  165.36   16.01
   4  -2  -4 1125.69   85.20
   4  -2  -4 1132.16   67.72
   4  -2  -4 1046.36   65.79
   4  -2  -4 1078.95   70.24
   4  -2  -4 1095.72   69.65
  -4   2   4 1135.30   83.76
  -4   2   4 1103.18   69.35
  -4   2   4 1045.51   69.21
  -4   2   4 1001.68   65.90
  -4   2   4 1041.57   66.46
  -4   2   4 1097.44   68.17
   3  -2  -4  427.65   43.95
   3  -2  -4  458.09   32.48
   3  -2  -4  452.44   30.73
   3  -2  -4  440.85   33.08
   3  -2  -4  455.59   29.60
  -3   2   4  439.34   29.62
  -3   2   4  507.37   44.31
  -3   2   4  458.14   31.56
  -3   2   4  473.51   30.41
  -3   2   4  466.65   32.32
  -3   2   4  445.57   32.69
   2  -2  -4  219.04   27.19
   2  -2  -4  224.08   18.42
   2  -2  -4  234.37   18.06
  -2   2   4  199.27   15.27
  -2   2   4  203.57   15.84
  -2   2   4  232.78   17.65
  -2   2   4  261.60   27.98
   1  -2  -4  455.73   28.10
   1  -2  -4  461.01   31.08
   1  -2  -4  401.89   28.56
   1  -2  -4  462.04   39.64
   1  -2  -4  460.03   30.37
  -1   2   4  457.61   30.96
  -1   2   4  378.77   29.48
  -1   2   4  433.05   28.00
  -1   2   4  479.41   39.04
   0  -2  -4 1244.35   88.62
   0   2   4 1280.16   80.29
   0   2   4 1356.47   88.39
   0   2   4 1316.39   79.71
  -1  -2  -4  198.79   15.95
  -1  -2  -4  210.02   14.24
  -1  -2  -4  225.80   16.57
  -1  -2  -4  207.51   14.67
   1   2   4  247.03   22.74
   1   2   4  216.57   16.63
   1   2   4  204.73   16.22
   1   2   4  202.57   14.64
   1   2   4  210.48   14.23
  -2  -2  -4 2982.34  185.86
   2   2   4 3030.96  184.18
  -3  -2  -4   42.33    3.96
  -3  -2  -4   44.61    4.05
  -3  -2  -4   46.59   10.96
  -3  -2  -4   31.63    3.95
   3   2   4   42.88    4.02
   3   2   4   50.90    9.98
   3   2   4   42.56    4.73
   3   2   4   54.11    7.01
   3   2   4   54.78    9.13
  -4  -2  -4  806.01   56.95
   4   2   4  781.30   49.63
   4   2   4  812.14   54.38
  -5  -2  -4  158.25   20.80
   5   2   4  237.54   15.84
   5   2   4  214.74   16.19
   5   2   4  233.72   20.74
   5   2   4  210.34   20.53
   5   2   4  233.81   14.01
  -6  -2  -4  905.43   61.99
   6   2   4  810.66   59.55
   6   2   4  865.16   54.20
   6   2   4  877.52   53.68
   6   2   4  864.43   60.07
  -7  -2  -4   51.58   16.06
  -7  -2  -4   56.01   13.24
   7   2   4   53.69    3.62
   7   2   4   65.87    8.83
   7   2   4   58.75   13.73
   7   2   4   55.76    8.23
  -8  -2  -4  720.78   53.25
  -8  -2  -4  691.12   57.34
   8   2   4  690.19   45.48
   8   2   4  621.77   51.72
   8   2   4  706.02   45.39
  -9  -2  -4   11.35   14.41
  -9  -2  -4   20.69   11.99
   9   2   4   11.33    5.45
   9   2   4   11.52    4.65
   9   2   4   16.84   10.90
 -10  -2  -4  241.87   28.84
 -10  -2  -4  179.45   31.03
  10   2   4  199.84   18.23
  10   2   4  184.30   18.77
  10   2   4  200.09   29.98
 -11  -2  -4    4.33   14.85
 -11  -2  -4    1.45   17.96
  11   2   4    5.36    6.10
  11   2   4    7.24    7.94
  11   2   4    5.09   10.24
 -12  -2  -4  145.65   27.16
  12   2   4  159.14   26.10
  12   2   4  161.78   18.10
  12   2   4  127.12   25.37
  11  -3  -4  119.01   21.28
  11  -3  -4  137.68   23.96
 -11   3   4   57.15   37.65
 -11   3   4   71.00   14.03
  10  -3  -4   55.64   15.20
  10  -3  -4   71.22   41.45
  10  -3  -4   66.07   16.33
  10  -3  -4   52.01    8.10
 -10   3   4   53.87   11.57
 -10   3   4   58.52   10.20
 -10   3   4   60.26    9.41
 -10   3   4   86.29   36.20
   9  -3  -4  268.15   28.03
   9  -3  -4  281.25   20.78
   9  -3  -4  246.26   27.66
  -9   3   4  284.72   24.54
  -9   3   4  327.09   54.29
  -9   3   4  270.52   25.91
  -9   3   4  277.73   21.97
   8  -3  -4   68.00   15.43
   8  -3  -4   81.20   15.28
   8  -3  -4   27.62   29.03
   8  -3  -4   50.47    7.55
  -8   3   4   79.28   27.44
  -8   3   4   59.45   13.01
  -8   3   4   39.59    8.34
  -8   3   4   58.66   11.78
  -8   3   4   68.99    9.96
   7  -3  -4  555.47   36.58
   7  -3  -4  534.21   60.52
   7  -3  -4  574.91   40.43
   7  -3  -4  570.39   43.69
   7  -3  -4  589.26   43.21
  -7   3   4  577.13   38.19
  -7   3   4  552.99   37.48
  -7   3   4  655.97   63.70
  -7   3   4  502.02   40.54
  -7   3   4  504.98   41.77
   6  -3  -4   53.56    7.18
   6  -3  -4   28.66    8.43
   6  -3  -4   18.86   20.41
   6  -3  -4   39.81    8.82
   6  -3  -4   44.47   11.05
  -6   3   4   43.47    9.54
  -6   3   4   33.31    9.15
  -6   3   4   36.89   10.01
  -6   3   4   41.95    7.16
  -6   3   4   31.95    7.29
  -6   3   4   62.47   22.28
   5  -3  -4  442.96   30.29
   5  -3  -4  417.12   32.64
   5  -3  -4  433.19   35.38
   5  -3  -4  404.27   33.63
   5  -3  -4  497.62   52.02
  -5   3   4  474.94   34.46
  -5   3   4  491.27   51.05
  -5   3   4  525.78   32.67
  -5   3   4  461.89   34.76
  -5   3   4  460.22   30.75
  -5   3   4  482.48   35.18
   4  -3  -4    2.88    4.18
   4  -3  -4   20.70   14.62
   4  -3  -4    5.00    4.49
   4  -3  -4    5.14    3.84
   4  -3  -4    6.13    2.44
  -4   3   4   -0.51    1.97
  -4   3   4   -0.06    2.67
  -4   3   4    9.72    5.40
  -4   3   4    4.60    3.69
  -4   3   4    2.84    3.33
  -4   3   4   -9.28    9.59
   3  -3  -4 1896.32  137.97
  -3   3   4 1960.39  122.61
  -3   3   4 2126.43  138.05
   2  -3  -4  416.82   40.09
   2  -3  -4  384.52   28.97
   2  -3  -4  379.91   25.36
   2  -3  -4  387.97   27.52
   2  -3  -4  374.72   26.82
  -2   3   4  416.59   29.03
  -2   3   4  397.77   27.32
  -2   3   4  420.22   39.75
  -2   3   4  348.48   26.13
  -2   3   4  383.91   25.37
   1  -3  -4 2035.81  133.81
  -1   3   4 2005.64  132.06
  -1   3   4 1940.29  121.10
   0  -3  -4 1014.45   76.27
   0   3   4 1107.95   76.65
   0   3   4 1090.53   67.53
  -1  -3  -4 1910.99  128.85
   1   3   4 2094.33  128.69
  -2  -3  -4  101.51   15.45
  -2  -3  -4   81.81    6.40
  -2  -3  -4   88.61    6.87
  -2  -3  -4   63.90    6.45
   2   3   4   87.04    8.60
   2   3   4   76.78    6.95
   2   3   4   74.89   13.61
   2   3   4   88.79    7.04
   2   3   4   83.29    8.40
  -3  -3  -4 2666.62  164.85
   3   3   4 2669.43  162.67
  -4  -3  -4   86.07   13.40
   4   3   4   88.25    7.02
   4   3   4   83.81    6.77
   4   3   4   84.72   10.82
   4   3   4   95.31   10.81
   4   3   4   78.22    7.42
  -5  -3  -4 1385.93   86.24
   5   3   4 1285.71   83.17
  -6  -3  -4   52.65   10.54
   6   3   4   39.61    4.27
   6   3   4   41.94    9.92
   6   3   4   47.31    5.12
   6   3   4   46.10    6.12
  -7  -3  -4  721.90   53.22
  -7  -3  -4  796.14   55.07
   7   3   4  808.91   48.15
   7   3   4  745.76   48.43
   7   3   4  809.14   55.89
  -8  -3  -4   20.60    9.88
  -8  -3  -4   30.34    9.47
   8   3   4   23.64    9.01
   8   3   4   33.76    5.81
   8   3   4   20.02    2.93
   8   3   4   26.24    5.53
  -9  -3  -4  301.07   27.25
  -9  -3  -4  291.59   26.11
   9   3   4  291.36   18.20
   9   3   4  283.00   29.27
   9   3   4  281.33   18.27
   9   3   4  293.38   21.81
   9   3   4  313.24   22.60
 -10  -3  -4    3.30    8.31
 -10  -3  -4    5.23    7.89
  10   3   4    3.88    4.10
  10   3   4   -0.17    3.84
  10   3   4    6.16    9.74
  11   3   4  213.58   28.91
  11   3   4  206.08   18.57
  11   3   4  195.31   25.90
  11   3   4  217.60   19.55
  12   3   4    8.27    8.95
  11  -4  -4   32.41   12.76
  11  -4  -4   13.35    9.87
 -11   4   4   -2.34    3.98
 -11   4   4   41.26    7.81
 -11   4   4  -12.11   30.63
 -11   4   4   41.33   40.19
  10  -4  -4  246.13   31.55
  10  -4  -4  176.03   28.34
  10  -4  -4  211.49   17.59
 -10   4   4  241.35   20.59
 -10   4   4  272.99   55.34
 -10   4   4  262.62   23.43
 -10   4   4  213.50   25.31
   9  -4  -4   54.22   15.13
   9  -4  -4   53.03    7.84
   9  -4  -4   81.15   16.35
  -9   4   4   51.01    9.09
  -9   4   4   45.99   32.71
  -9   4   4   59.14   13.12
  -9   4   4   59.05   10.01
  -9   4   4   63.20   14.49
   8  -4  -4  191.25   24.35
   8  -4  -4  168.00   44.19
   8  -4  -4  158.58   13.86
   8  -4  -4  147.16   23.74
  -8   4   4  143.19   14.79
  -8   4   4  233.58   47.30
  -8   4   4  160.37   24.24
  -8   4   4  170.64   22.62
  -8   4   4  200.83   17.82
   7  -4  -4    3.73    6.47
   7  -4  -4   -3.57    2.60
   7  -4  -4    1.38    2.61
   7  -4  -4  -17.09   18.51
  -7   4   4   -2.36    5.81
  -7   4   4    1.33    4.59
  -7   4   4   -3.50    4.07
  -7   4   4    0.68    3.06
  -7   4   4   14.73   20.52
   6  -4  -4  627.98   45.66
   6  -4  -4  537.66   37.48
   6  -4  -4  491.71   41.83
   6  -4  -4  588.15   64.63
   6  -4  -4  581.34   41.85
  -6   4   4  577.30   38.10
  -6   4   4  581.13   43.21
  -6   4   4  719.59   67.59
  -6   4   4  618.47   40.70
  -6   4   4  565.61   44.39
   5  -4  -4    4.42    2.73
   5  -4  -4   -2.56    2.77
   5  -4  -4    0.31    5.12
   5  -4  -4   17.89   17.58
   5  -4  -4    2.15    4.56
  -5   4   4    3.15    5.18
  -5   4   4  -10.19   14.37
  -5   4   4    2.67    2.48
  -5   4   4    0.82    2.83
  -5   4   4    0.13    5.13
  -5   4   4    4.93    4.20
   4  -4  -4 1177.35   92.06
   4  -4  -4 1100.98   70.02
   4  -4  -4 1130.71   66.66
   4  -4  -4 1142.48   72.74
   4  -4  -4 1119.89   69.85
  -4   4   4 1026.14   66.42
  -4   4   4 1014.52   71.68
  -4   4   4 1039.41   87.98
  -4   4   4  982.47   70.68
  -4   4   4 1058.46   68.66
  -4   4   4 1148.26   69.96
   3  -4  -4    0.75    2.55
   3  -4  -4    6.91    4.35
   3  -4  -4    4.95    2.37
   3  -4  -4    0.17    8.44
   3  -4  -4   -5.34    3.55
  -3   4   4    1.20    2.17
  -3   4   4    2.58    4.50
  -3   4   4    8.11   10.76
  -3   4   4    3.42    4.71
  -3   4   4    5.12    3.90
  -3   4   4    3.23    3.32
   2  -4  -4 1654.65  104.35
   2  -4  -4 1641.40  121.73
   2  -4  -4 1710.44  106.57
  -2   4   4 1727.87  106.59
  -2   4   4 1829.84  122.48
   1  -4  -4   45.65    7.04
   1  -4  -4   41.33    8.36
   1  -4  -4   57.24   16.74
   1  -4  -4   42.15    7.39
   1  -4  -4   35.99    5.65
  -1   4   4   29.52   12.43
  -1   4   4   35.26    5.44
  -1   4   4   36.35    8.08
  -1   4   4   43.89    7.14
  -1   4   4   35.28    6.24
   0  -4  -4 1760.31  149.54
   0   4   4 2410.18  141.59
  -1  -4  -4   38.31    5.32
  -1  -4  -4   28.76    5.77
  -1  -4  -4   37.95    5.85
  -1  -4  -4   23.83    9.98
  -1  -4  -4   44.63    6.02
   1   4   4   37.24   11.67
   1   4   4   40.01    6.29
   1   4   4   31.81    6.78
   1   4   4   50.37    6.63
   1   4   4   49.13    6.16
  -2  -4  -4 1571.47  103.28
   2   4   4 1537.09  101.25
  -3  -4  -4   24.30    8.87
  -3  -4  -4   16.24    3.66
   3   4   4   15.32    3.36
   3   4   4   16.50    3.39
   3   4   4   25.52    4.99
   3   4   4   21.40    7.39
  -4  -4  -4 1684.66  104.77
   4   4   4 1644.45  101.75
  -5  -4  -4    0.15    3.99
   5   4   4    2.68    4.07
   5   4   4    4.44    1.74
   5   4   4    3.67    2.04
   5   4   4    2.01    2.31
   5   4   4    0.85    1.51
   6   4   4 1138.51   75.00
   7   4   4   12.31    2.99
   7   4   4   15.23    3.37
   7   4   4   12.88    2.79
   7   4   4   14.59    7.22
   8   4   4  395.94   36.64
   8   4   4  477.52   30.23
   8   4   4  479.86   29.85
   8   4   4  483.09   29.92
   9   4   4    3.49    2.07
   9   4   4   21.01    8.72
   9   4   4    8.27    3.24
   9   4   4    4.99    3.29
  10   4   4  369.53   31.78
  10   4   4  314.11   20.31
  10   4   4  292.95   20.51
  10   4   4  288.45   23.07
  10   4   4  345.04   32.59
  10   4   4  312.23   22.80
  11   4   4    5.21   10.67
  11   4   4   11.19    5.30
  11   4   4    9.68    4.70
  11   4   4    8.28    1.77
  11   4   4    7.25    1.85
  11   4   4   33.11   10.74
  11  -5  -4  149.45   25.99
  11  -5  -4  132.09   24.33
 -11   5   4  175.73   17.44
 -11   5   4  103.26   54.55
  10  -5  -4   13.13   10.38
  10  -5  -4   30.68   11.47
 -10   5   4    9.27   30.14
 -10   5   4  -12.24   32.03
 -10   5   4   26.11    6.74
 -10   5   4   23.79    7.26
   9  -5  -4  175.01   25.77
   9  -5  -4  159.19   14.93
   9  -5  -4  199.05   28.62
  -9   5   4  183.40   16.99
  -9   5   4  230.55   20.21
  -9   5   4  253.56   56.01
   8  -5  -4   76.06   17.27
   8  -5  -4   54.77   32.39
   8  -5  -4   85.55    8.60
   8  -5  -4   73.17   15.52
  -8   5   4   65.63   10.17
  -8   5   4   58.71   34.43
  -8   5   4   95.63   18.32
  -8   5   4   85.87   13.91
   7  -5  -4  441.05   33.62
   7  -5  -4  348.41   26.14
   7  -5  -4  257.91   54.83
   7  -5  -4  375.77   34.64
  -7   5   4  466.21   31.17
  -7   5   4  365.40   26.76
  -7   5   4  361.31   32.46
  -7   5   4  311.33   33.16
  -7   5   4  460.23   56.61
   6  -5  -4  120.79   11.34
   6  -5  -4  137.48   18.56
   6  -5  -4   90.63   33.18
   6  -5  -4  173.16   22.97
  -6   5   4  126.48   19.66
  -6   5   4  128.50   11.95
  -6   5   4  117.10   16.29
  -6   5   4  125.76   20.80
  -6   5   4  147.88   38.93
   5  -5  -4 1212.24   72.41
   5  -5  -4 1093.70   67.22
   5  -5  -4 1048.14   71.19
   5  -5  -4 1260.94  101.22
   5  -5  -4 1025.60   74.01
  -5   5   4  978.99   73.95
  -5   5   4 1058.61   73.03
  -5   5   4  999.96   69.82
  -5   5   4 1155.31   67.67
  -5   5   4 1095.76   95.52
   4  -5  -4    4.58   11.84
   4  -5  -4   -0.79    3.19
   4  -5  -4    3.83    2.68
   4  -5  -4   -0.29    2.66
   4  -5  -4    3.43    5.92
  -4   5   4    0.22    2.69
  -4   5   4   -0.29    5.03
  -4   5   4    5.04    2.81
  -4   5   4    8.38    5.72
  -4   5   4    0.17   11.08
  -4   5   4    1.04    3.95
   3  -5  -4  437.64   31.07
   3  -5  -4  412.29   28.01
   3  -5  -4  407.77   29.79
   3  -5  -4  450.72   50.27
   3  -5  -4  441.35   33.63
  -3   5   4  407.51   30.19
  -3   5   4  373.23   27.72
  -3   5   4  500.31   34.04
  -3   5   4  418.32   47.04
  -3   5   4  381.57   29.19
  -3   5   4  399.87   33.74
   2  -5  -4   16.38   12.98
   2  -5  -4    6.67    3.09
   2  -5  -4   17.33    5.63
   2  -5  -4   21.43    5.38
   2  -5  -4    4.44    5.52
  -2   5   4   28.20   14.51
  -2   5   4   15.22    4.04
  -2   5   4   28.69    7.93
  -2   5   4   14.39    4.16
  -2   5   4    3.14    3.72
  -2   5   4   12.85    6.99
   1  -5  -4 1584.42   94.13
   1  -5  -4 1456.27   95.52
   1  -5  -4 1545.05  112.03
  -1   5   4 1509.50   95.92
  -1   5   4 1538.15  111.16
   0  -5  -4   85.00    8.03
   0  -5  -4   75.06   11.28
   0  -5  -4   96.35    9.21
   0  -5  -4   77.06    8.00
   0   5   4   79.33   19.33
   0   5   4   77.89    7.54
   0   5   4   84.79   10.74
   0   5   4   79.10   12.11
   0   5   4   73.68    7.68
  -1  -5  -4 1043.91   59.69
  -1  -5  -4  993.77   60.24
  -1  -5  -4  877.25   71.72
  -1  -5  -4  965.04   58.98
   1   5   4 1051.91   59.65
   1   5   4  958.56   58.71
   1   5   4  849.74   59.44
   1   5   4  958.68   61.49
   1   5   4  911.23   71.17
  -2  -5  -4    7.48    1.29
  -2  -5  -4    4.62    2.74
  -2  -5  -4    4.03    8.54
   2   5   4    2.84    2.56
   2   5   4    0.34    6.86
   2   5   4    2.20    2.12
   2   5   4   11.70    4.23
   2   5   4    5.70    2.98
  -3  -5  -4  633.93   49.08
   3   5   4  687.18   41.35
   3   5   4  610.88   47.07
   3   5   4  666.82   40.96
   3   5   4  624.46   40.08
   3   5   4  626.93   41.26
  -4  -5  -4   19.71    7.53
   4   5   4   24.90    4.07
   4   5   4   25.79    4.88
   4   5   4   40.14    7.91
   4   5   4   31.17    5.17
   5   5   4 1037.53   58.11
   5   5   4  897.81   55.59
   5   5   4  885.35   56.23
   6   5   4   26.12    3.49
   6   5   4   28.76    8.74
   6   5   4   28.27    2.90
   6   5   4   32.03    5.29
   7   5   4  296.16   18.86
   7   5   4  321.43   21.68
   7   5   4  282.71   19.27
   7   5   4  391.28   29.01
   8   5   4    2.30    5.37
   8   5   4    4.93    2.01
   8   5   4    3.60    2.57
   8   5   4    5.06    1.74
   9   5   4  343.39   21.22
   9   5   4  273.97   19.55
   9   5   4  316.00   27.98
   9   5   4  295.61   28.63
   9   5   4  267.22   19.35
  10   5   4   31.62   10.40
  10   5   4   34.08    5.81
  10   5   4   26.89   10.90
  10   5   4   37.32    5.94
  10   5   4   34.16    5.31
  11   5   4  153.47   25.56
  11   5   4  161.16   24.90
  11   5   4  173.12   14.69
  11   5   4  162.37   13.75
  11   5   4  194.57   15.58
  11   5   4  196.19   13.86
  10  -6  -4  111.81   22.79
  10  -6  -4  114.70   22.05
 -10   6   4  113.86   16.98
 -10   6   4    3.99   36.04
 -10   6   4   58.13   51.05
 -10   6   4  143.14   13.78
   9  -6  -4   17.79    9.95
   9  -6  -4    9.64    7.20
  -9   6   4   16.85    8.06
  -9   6   4   31.28   29.73
  -9   6   4   23.34    6.37
  -9   6   4   19.79   30.05
   8  -6  -4  360.18   34.32
   8  -6  -4  291.88   29.27
   8  -6  -4  270.17   24.68
  -8   6   4  278.89   55.76
  -8   6   4  373.24   28.38
  -8   6   4  305.94   23.80
   7  -6  -4  251.30   55.89
   7  -6  -4  174.24   15.58
   7  -6  -4  228.30   29.89
   7  -6  -4  195.45   21.33
  -7   6   4  208.18   45.30
  -7   6   4  187.58   16.50
  -7   6   4  210.15   20.54
   6  -6  -4  534.18   39.22
   6  -6  -4  554.08   43.43
   6  -6  -4  518.60   64.30
   6  -6  -4  482.95   33.73
  -6   6   4  500.81   43.06
  -6   6   4  428.22   33.44
  -6   6   4  507.84   67.44
  -6   6   4  520.69   37.87
   5  -6  -4  153.41   16.49
   5  -6  -4  181.28   24.75
   5  -6  -4  160.53   13.65
   5  -6  -4  203.68   43.30
  -5   6   4  181.74   25.39
  -5   6   4  184.06   40.89
  -5   6   4  149.64   13.72
  -5   6   4  132.22   22.96
  -5   6   4  149.93   16.20
   4  -6  -4  573.30   62.62
   4  -6  -4  547.97   42.74
   4  -6  -4  500.79   35.61
   4  -6  -4  580.34   40.26
   4  -6  -4  576.74   39.05
  -4   6   4  552.32   41.65
  -4   6   4  520.93   39.05
  -4   6   4  556.52   36.34
  -4   6   4  495.16   58.17
  -4   6   4  493.06   43.03
   3  -6  -4   39.88    8.62
   3  -6  -4   39.33    6.62
   3  -6  -4   18.77   19.81
   3  -6  -4   37.51    7.58
   3  -6  -4   28.60    9.84
  -3   6   4   40.65   11.20
  -3   6   4    4.92   17.83
  -3   6   4   17.07    7.41
  -3   6   4   32.23    8.08
  -3   6   4   37.93    6.66
   2  -6  -4 1057.69   65.81
   2  -6  -4  869.38   81.98
   2  -6  -4  913.66   59.84
   2  -6  -4  926.46   62.42
   2  -6  -4  971.44   60.73
  -2   6   4 1060.38   63.35
  -2   6   4  935.28   64.70
  -2   6   4  921.79   59.87
  -2   6   4  889.88   66.80
  -2   6   4 1009.85   83.41
  -2   6   4  983.95   60.26
   1  -6  -4  101.42   11.13
   1  -6  -4   79.14   13.75
   1  -6  -4  101.87   10.02
   1  -6  -4  117.22   10.37
   1  -6  -4  106.95   28.25
  -1   6   4  111.59   10.38
  -1   6   4  112.11    9.50
  -1   6   4  139.37   20.49
  -1   6   4   93.70   24.86
  -1   6   4   97.63   15.45
  -1   6   4  102.54   11.65
   0  -6  -4  470.09   32.90
   0  -6  -4  477.50   31.39
   0  -6  -4  414.57   29.00
   0  -6  -4  494.31   30.87
   0   6   4  509.19   34.40
   0   6   4  425.04   28.67
   0   6   4  484.01   32.27
   0   6   4  388.26   29.87
   0   6   4  446.69   46.67
  -1  -6  -4  111.65    9.98
  -1  -6  -4  111.78   10.44
  -1  -6  -4  127.19   11.59
  -1  -6  -4  106.59   23.16
   1   6   4  111.01    8.64
   1   6   4  108.16   10.14
   1   6   4  108.69   14.34
   1   6   4  105.61   10.82
   1   6   4  126.03   24.22
  -2  -6  -4  843.68   72.77
   2   6   4  955.15   59.10
   2   6   4 1002.39   61.18
   2   6   4  990.81   73.22
   2   6   4  996.57   62.68
   2   6   4 1031.05   61.17
  -3  -6  -4    0.96    8.20
   3   6   4   -0.51    1.86
   3   6   4   -0.02    2.77
   3   6   4    3.48    2.71
   3   6   4    0.02    2.07
   3   6   4   -2.45    7.17
   4   6   4  892.46   56.94
   4   6   4 1005.60   61.33
   4   6   4  990.29   63.22
   4   6   4  816.69   57.71
   4   6   4  968.57   58.57
   5   6   4   32.52    5.95
   5   6   4   15.51    3.97
   5   6   4   27.20    4.31
   6   6   4  480.30   29.11
   6   6   4  384.85   25.51
   6   6   4  401.17   26.32
   7   6   4   30.59    7.89
   7   6   4   30.56    3.01
   7   6   4   43.63   11.11
   7   6   4   28.07    5.82
   7   6   4   30.28    3.88
   8   6   4  341.67   24.42
   8   6   4  318.81   20.41
   8   6   4  321.27   20.87
   8   6   4  429.79   32.27
   8   6   4  368.59   29.09
   9   6   4   -2.32    2.22
   9   6   4    2.07    1.46
   9   6   4   -0.58    1.25
   9   6   4    1.72    5.28
   9   6   4    0.85    5.95
  10   6   4  209.41   14.51
  10   6   4  246.18   24.81
  10   6   4  171.16   16.22
  10   6   4  263.34   24.98
  10   6   4  208.21   14.54
  11   6   4    4.41    2.87
  11   6   4    7.56    3.51
  11   6   4    6.49    7.53
  11   6   4   -2.94    8.01
  10  -7  -4   46.31   16.26
  10  -7  -4   38.88   13.43
 -10   7   4   43.04    8.85
 -10   7   4   25.04    9.65
 -10   7   4  -32.50   54.23
 -10   7   4    1.45   39.61
   9  -7  -4  188.83   25.42
   9  -7  -4  141.82   26.12
  -9   7   4   36.46   36.20
  -9   7   4  131.99   14.45
  -9   7   4  175.11   22.26
  -9   7   4  175.04   55.58
   8  -7  -4   39.35   13.92
   8  -7  -4   36.15   11.09
  -8   7   4   15.45   29.58
  -8   7   4   34.20    7.51
  -8   7   4   31.03   10.23
  -8   7   4   15.64   36.13
   7  -7  -4  657.37   55.79
   7  -7  -4  637.99   51.15
  -7   7   4  798.53   78.51
  -7   7   4  736.37   88.13
  -7   7   4  685.55   50.62
  -7   7   4  709.98   46.58
   6  -7  -4  202.08   27.96
   6  -7  -4  161.82   18.38
  -6   7   4  132.05   38.94
  -6   7   4  187.08   19.16
  -6   7   4  170.03   15.72
   5  -7  -4  391.77   29.82
   5  -7  -4  445.53   33.73
   5  -7  -4  467.67   38.85
   5  -7  -4  425.19   68.36
  -5   7   4  411.90   34.14
  -5   7   4  515.19   66.11
  -5   7   4  416.61   30.44
   4  -7  -4  141.83   39.58
   4  -7  -4   83.73   11.07
   4  -7  -4  104.02   18.84
   4  -7  -4  101.45   14.18
  -4   7   4  129.02   34.45
  -4   7   4   90.31   11.57
  -4   7   4   98.54   15.63
   3  -7  -4  642.06   48.03
   3  -7  -4  647.09   42.69
   3  -7  -4  611.20   44.59
   3  -7  -4  669.41   71.96
   3  -7  -4  583.15   41.27
  -3   7   4  643.35   41.91
  -3   7   4  606.63   44.83
  -3   7   4  562.06   48.86
  -3   7   4  728.30   73.40
  -3   7   4  653.23   47.74
   2  -7  -4   47.86   21.61
   2  -7  -4   40.02    7.13
   2  -7  -4   40.83    7.48
   2  -7  -4   49.57    9.94
   2  -7  -4   40.46   10.85
  -2   7   4   64.97   14.72
  -2   7   4   31.43    8.76
  -2   7   4   18.74    5.26
  -2   7   4   29.09   20.98
  -2   7   4   47.11    9.81
   1  -7  -4  416.37   29.17
   1  -7  -4  293.00   49.20
   1  -7  -4  333.72   26.53
   1  -7  -4  358.34   30.43
   1  -7  -4  417.03   26.33
  -1   7   4  404.24   31.47
  -1   7   4  432.58   27.82
  -1   7   4  382.07   34.33
  -1   7   4  406.87   48.71
  -1   7   4  323.71   28.49
   0  -7  -4    4.63    3.62
   0  -7  -4   -0.05    3.66
   0  -7  -4    1.69    1.67
   0  -7  -4    1.37    2.63
   0   7   4    2.09    3.39
   0   7   4   17.04   14.34
   0   7   4    5.02    6.35
   0   7   4    6.05    3.13
   0   7   4    4.12    4.66
  -1  -7  -4  518.15   34.09
  -1  -7  -4  518.78   35.55
   1   7   4  449.16   50.15
   1   7   4  523.66   36.14
   1   7   4  507.57   34.98
   1   7   4  544.14   38.06
   2   7   4   67.11   19.16
   2   7   4   72.13   15.79
   2   7   4   83.72   10.95
   2   7   4   66.14    4.69
   2   7   4   57.07    8.86
   2   7   4   82.81   12.43
   3   7   4  847.30   52.73
   3   7   4  738.54   58.83
   3   7   4  820.38   49.77
   3   7   4  782.04   52.66
   3   7   4  869.96   54.36
   3   7   4  873.35   65.11
   4   7   4   17.47    9.99
   4   7   4   14.06    6.80
   4   7   4   14.76    3.60
   4   7   4   21.70    5.33
   4   7   4   20.57    5.48
   4   7   4   11.17    3.57
   4   7   4   13.86    4.15
   5   7   4  439.00   30.05
   5   7   4  414.99   29.92
   5   7   4  463.37   31.07
   5   7   4  447.01   28.77
   5   7   4  424.44   28.88
   5   7   4  441.44   28.02
   6   7   4   57.39    9.34
   6   7   4   56.55    7.65
   6   7   4   52.47    5.74
   6   7   4   63.23    9.67
   7   7   4  633.23   39.42
   7   7   4  611.48   38.62
   7   7   4  643.18   44.40
   7   7   4  647.43   42.50
   8   7   4   17.37    3.05
   8   7   4   11.26    4.65
   8   7   4   17.48    6.45
   8   7   4    9.37    1.99
   8   7   4    9.68    7.52
   9   7   4  170.18   18.56
   9   7   4  155.53   10.51
   9   7   4  163.46   14.88
   9   7   4  159.13    9.99
   9   7   4  200.58   21.71
  10   7   4    0.29    6.15
  10   7   4    7.86    7.66
  10   7   4    4.76    3.99
   9  -8  -4   37.99   11.18
   9  -8  -4   58.93   17.24
  -9   8   4    7.36   47.18
  -9   8   4   26.01   33.28
  -9   8   4   30.22    7.88
  -9   8   4   47.98   12.71
   8  -8  -4  132.04   21.51
   8  -8  -4  200.22   30.77
  -8   8   4  161.38   15.68
  -8   8   4  226.95   49.55
  -8   8   4   72.38   42.26
  -8   8   4  133.45   20.48
   7  -8  -4   45.04   14.61
   7  -8  -4   29.83    9.81
  -7   8   4   23.13    9.23
  -7   8   4   19.79    6.26
  -7   8   4   28.63   30.35
  -7   8   4   23.61   38.48
   6  -8  -4  302.46   32.09
   6  -8  -4  275.90   25.98
  -6   8   4  352.81   67.25
  -6   8   4  291.10   23.39
  -6   8   4  254.12   26.75
  -6   8   4  325.06   53.38
   5  -8  -4    7.49    6.05
   5  -8  -4   12.54    9.99
  -5   8   4    9.68    4.92
  -5   8   4   18.13    6.83
  -5   8   4   -1.46   21.67
  -5   8   4   46.71   37.63
   4  -8  -4  562.98   44.97
   4  -8  -4  530.76   38.04
  -4   8   4  539.86   60.14
  -4   8   4  489.52   76.23
  -4   8   4  491.97   40.37
  -4   8   4  527.34   37.01
   3  -8  -4   99.00   12.55
   3  -8  -4   95.98   18.44
   3  -8  -4  107.84   15.60
  -3   8   4  109.97   16.77
  -3   8   4   76.76   11.43
  -3   8   4   77.97   33.55
  -3   8   4   83.05   27.94
   2  -8  -4 1236.90   84.20
   2  -8  -4 1336.06   80.85
   2  -8  -4 1357.32   87.99
  -2   8   4 1306.71   85.33
  -2   8   4 1483.50  117.66
  -2   8   4 1256.43  101.58
  -2   8   4 1251.88   81.72
   1  -8  -4   83.35   14.89
   1  -8  -4   86.15   13.53
   1  -8  -4   87.86    8.26
  -1   8   4   60.17   26.81
  -1   8   4   67.30   19.76
  -1   8   4   81.60   14.45
  -1   8   4   83.62   11.46
  -1   8   4  106.47   15.86
   0  -8  -4  669.32   43.71
   0  -8  -4  696.19   46.28
   0   8   4  640.83   45.27
   0   8   4  604.82   42.94
   0   8   4  597.59   46.59
   0   8   4  630.72   57.38
   0   8   4  650.12   66.98
  -1  -8  -4   70.50   10.72
  -1  -8  -4   74.74    9.81
   1   8   4   61.10   19.03
   1   8   4   88.79   11.79
   1   8   4   65.97   11.45
   1   8   4   64.70   23.42
   1   8   4   68.30   12.64
   2   8   4  813.21   64.34
   2   8   4  813.53   54.42
   2   8   4  818.67   53.80
   2   8   4  793.75   56.01
   2   8   4  890.28   72.95
   3   8   4   80.39   12.54
   3   8   4   59.03   20.51
   3   8   4   71.09   10.48
   3   8   4   80.98   11.04
   3   8   4   37.83   13.90
   4   8   4  374.23   32.92
   4   8   4  380.00   27.86
   4   8   4  389.16   23.90
   4   8   4  373.07   28.84
   4   8   4  375.47   23.69
   4   8   4  406.13   37.98
   4   8   4  431.55   29.16
   5   8   4    7.58    5.54
   5   8   4   12.56    3.56
   5   8   4    3.48    3.84
   5   8   4    6.98    2.95
   5   8   4    4.08    3.33
   5   8   4    1.64    3.72
   5   8   4    6.54    7.75
   6   8   4  511.37   35.83
   6   8   4  549.67   36.30
   6   8   4  510.69   34.79
   6   8   4  563.22   37.70
   7   8   4    4.52    3.68
   7   8   4    7.15    2.90
   7   8   4    8.36    4.99
   7   8   4    8.24    4.81
   8   8   4  237.32   24.67
   8   8   4  194.00   14.69
   8   8   4  217.14   15.69
   8   8   4  202.43   19.47
   8   8   4  245.45   19.33
   9   8   4   17.88    5.74
   9   8   4   30.08    8.58
   9   8   4   17.68    3.19
   9   8   4   17.20    2.72
   9   8   4   18.65    9.65
   8  -9  -4   18.15   12.02
   8  -9  -4    5.71    7.43
  -8   9   4   21.10   10.31
  -8   9   4   23.46   56.00
  -8   9   4   25.24   40.28
  -8   9   4   13.10    5.23
   7  -9  -4  127.14   24.93
   7  -9  -4   96.33   16.50
  -7   9   4   82.90   16.98
  -7   9   4   55.92   49.31
  -7   9   4   85.90   13.26
  -7   9   4  125.71   40.68
   6  -9  -4    6.07    6.06
   6  -9  -4   18.45   10.73
  -6   9   4    1.42    6.07
  -6   9   4   10.93   22.65
  -6   9   4   -8.24   40.97
  -6   9   4    1.66    4.64
   5  -9  -4  285.91   25.42
   5  -9  -4  313.42   32.20
  -5   9   4  302.91   28.70
  -5   9   4  263.09   23.53
  -5   9   4  312.09   53.53
  -5   9   4  384.27   71.93
   4  -9  -4   17.60   11.00
   4  -9  -4   17.67    6.49
  -4   9   4   21.20   24.48
  -4   9   4   71.19   36.55
  -4   9   4   21.19    6.58
  -4   9   4   30.72   11.03
   3  -9  -4  536.92   37.08
   3  -9  -4  557.36   44.83
  -3   9   4  515.75   60.52
  -3   9   4  498.47   41.01
  -3   9   4  509.24   37.66
  -3   9   4  593.76   71.84
   2  -9  -4   -4.16    2.23
   2  -9  -4   -0.02    6.34
   2  -9  -4   -0.30    4.05
  -2   9   4   -2.07   21.75
  -2   9   4    1.22    4.11
  -2   9   4    4.60    6.03
  -2   9   4    0.77   16.79
   1  -9  -4  501.84   37.48
   1  -9  -4  408.22   26.22
   1  -9  -4  406.46   32.52
  -1   9   4  413.25   34.58
  -1   9   4  485.65   51.61
  -1   9   4  488.09   32.72
  -1   9   4  390.80   63.60
   0  -9  -4   -4.09    4.87
   0  -9  -4    3.35    4.14
   0   9   4    0.70   19.43
   0   9   4    1.37    2.86
   0   9   4    2.94    4.72
   0   9   4   23.67   15.14
  -1  -9  -4  468.77   33.11
  -1  -9  -4  507.14   35.06
   1   9   4  487.97   57.63
   1   9   4  469.20   36.49
   1   9   4  480.07   35.07
   1   9   4  505.37   48.97
   2   9   4   46.87    9.34
   2   9   4   59.28   12.27
   2   9   4   75.95   26.69
   2   9   4   46.24    9.75
   3   9   4  456.49   34.50
   3   9   4  465.38   36.13
   3   9   4  513.85   52.66
   3   9   4  487.14   35.17
   4   9   4   64.34   15.28
   4   9   4   56.52    9.97
   4   9   4   40.61   20.02
   4   9   4   77.22   11.75
   4   9   4   86.50   13.06
   5   9   4  507.11   35.18
   5   9   4  418.29   39.01
   5   9   4  452.37   35.89
   5   9   4  453.88   33.26
   5   9   4  543.75   35.63
   6   9   4   13.89    3.37
   6   9   4   15.34    5.05
   6   9   4   13.86    5.88
   6   9   4    8.65    2.80
   6   9   4   18.92    6.35
   7   9   4  191.77   15.32
   7   9   4  216.04   18.52
   7   9   4  174.10   15.24
   7   9   4  187.75   15.44
   7   9   4  163.54   15.71
   8   9   4    5.10    4.78
   8   9   4   -1.62    6.44
   8   9   4   18.31    5.18
   8   9   4   22.08    4.82
   8   9   4   17.27    5.55
   7 -10  -4   11.63   11.07
   7 -10  -4   -3.32    5.34
  -7  10   4    0.80    4.42
  -7  10   4   19.57   42.42
  -7  10   4   96.48   64.21
  -7  10   4    5.05    6.90
   6 -10  -4  211.04   31.96
   6 -10  -4  125.95   18.96
  -6  10   4   91.91   62.87
  -6  10   4  235.38   55.19
  -6  10   4  144.84   23.85
  -6  10   4  170.17   19.87
   5 -10  -4   73.15   12.74
   5 -10  -4   68.29   17.89
  -5  10   4   70.53   16.49
  -5  10   4   64.00   11.72
  -5  10   4   55.53   35.66
  -5  10   4   19.80   45.49
   4 -10  -4  294.17   24.31
   4 -10  -4  285.70   31.60
  -4  10   4  281.18   24.71
  -4  10   4  282.11   28.54
  -4  10   4  328.04   54.41
  -4  10   4  394.51   77.07
   3 -10  -4   42.92   14.25
   3 -10  -4   44.78    7.46
  -3  10   4   62.15   40.28
  -3  10   4   37.31   26.31
  -3  10   4   41.16    8.91
  -3  10   4   23.05   10.01
   2 -10  -4  247.14   25.03
   2 -10  -4  175.52   13.28
  -2  10   4  177.89   25.17
  -2  10   4  141.05   48.29
  -2  10   4  189.65   45.57
  -2  10   4  163.23   17.31
   1 -10  -4   12.66    6.91
   1 -10  -4    3.46    7.08
  -1  10   4   -1.40   28.28
  -1  10   4    2.18    4.17
  -1  10   4   10.19    5.20
   0 -10  -4  398.92   30.24
   0 -10  -4  416.19   32.80
   0  10   4  387.73   65.86
   0  10   4  353.65   30.00
   0  10   4  407.29   33.44
  -1 -10  -4    9.82    5.63
  -1 -10  -4   16.44    5.09
   1  10   4   29.69   19.47
   1  10   4    9.13    4.97
   1  10   4   10.46    6.29
   1  10   4   28.54   27.31
   2  10   4  204.12   20.33
   2  10   4  296.23   23.99
   2  10   4  234.54   45.59
   3  10   4   16.26   23.45
   3  10   4   27.72   15.44
   3  10   4   15.01    6.00
   3  10   4   19.91    7.81
   4  10   4  343.55   44.01
   4  10   4  247.71   32.43
   4  10   4  286.87   24.84
   4  10   4  314.78   25.46
   5  10   4   12.89   11.26
   5  10   4   24.13    7.55
   5  10   4   31.46    7.40
   5  10   4   16.28   16.29
   5  10   4   22.42    7.25
   6  10   4  221.96   20.32
   6  10   4  216.68   19.18
   6  10   4  232.41   21.14
   7  10   4    3.74    4.98
   7  10   4    2.49    3.89
   7  10   4   16.21    6.35
   5 -11  -4  177.82   27.71
  -5  11   4  218.80   73.76
  -5  11   4  122.40   48.83
  -5  11   4  154.46   19.15
  -5  11   4  116.64   22.32
   4 -11  -4    2.13    8.66
   4 -11  -4   19.48    5.76
  -4  11   4   38.25   52.17
  -4  11   4   27.72   10.36
  -4  11   4   23.45    7.46
  -4  11   4   16.80   35.51
   3 -11  -4  165.61   26.21
  -3  11   4  201.24   50.36
  -3  11   4  165.70   24.59
  -3  11   4  145.75   56.86
  -3  11   4  138.62   18.47
   2 -11  -4   10.98   10.85
  -2  11   4   -5.19   29.39
  -2  11   4   13.13    6.41
  -2  11   4    0.60   36.60
  -2  11   4   12.52    8.52
   1 -11  -4  164.29   22.25
   1 -11  -4  180.23   24.98
  -1  11   4  186.03   18.82
  -1  11   4  293.13   49.55
  -1  11   4  242.71   59.14
  -1  11   4  161.74   24.25
   0 -11  -4    6.23    7.39
   0 -11  -4    6.92    5.92
   0  11   4    6.19   33.94
   0  11   4   52.61   22.88
   0  11   4    4.99    5.33
   0  11   4    5.40    6.62
  -1 -11  -4  240.96   18.83
   1  11   4  194.10   46.85
   1  11   4  221.77   22.92
   1  11   4  187.10   39.93
   1  11   4  181.83   19.92
   2  11   4    8.83   31.89
   2  11   4    1.30    4.65
   2  11   4   18.97   19.62
   2  11   4    5.69    6.04
   3  11   4  238.10   22.67
   3  11   4  230.61   48.97
   3  11   4  217.38   34.50
   3  11   4  204.78   20.94
   4  11   4   -5.37   16.16
   4  11   4   15.82    7.23
   4  11   4   -9.19   26.26
   4  11   4   -1.46    3.68
   5  11   4  195.13   18.28
   5  11   4  166.32   32.42
   5  11   4  178.09   21.99
   5  11   4  141.11   25.34
   6  11   4    1.50    4.99
   3 -12  -4   36.03   12.23
  -3  12   4   18.40    7.25
  -3  12   4  -24.61   51.89
  -3  12   4   20.12   33.74
  -3  12   4   20.51    9.71
   2 -12  -4  114.08   19.56
  -2  12   4   95.10   38.37
  -2  12   4   88.35   14.93
  -2  12   4   81.51   58.91
  -2  12   4  100.02   19.05
   1 -12  -4   27.67   10.14
  -1  12   4   18.17    8.02
  -1  12   4   -2.08   47.78
  -1  12   4   15.00    9.81
  -1  12   4   -9.73   32.11
   0  12   4  110.16   51.57
   0  12   4  161.17   23.46
   0  12   4  121.18   17.58
   1  12   4   89.58   47.82
   1  12   4   15.05    8.31
   1  12   4   15.80    6.28
   2  12   4  184.85   54.17
   2  12   4  143.31   22.38
   2  12   4  143.75   19.72
   3  12   4    6.26    5.90
   3  12   4    9.24    6.21
   3  12   4   -9.09   39.65
   3   9  -5  131.35   23.37
   2   9  -5    7.03    9.55
  -2  -9   5   22.01    8.71
  -2  -9   5   -1.14    3.84
  -2  -9   5   -0.73    2.13
   1   9  -5  157.45   42.72
   1   9  -5  143.04   24.97
  -1  -9   5  132.63   20.97
  -1  -9   5   85.91   40.42
   0   9  -5    3.96    5.80
   0   9  -5   21.08   11.97
   0   9  -5   -0.73   31.52
   0  -9   5   14.28   10.97
   0  -9   5   23.08   30.94
  -1   9  -5   68.98   18.95
  -1   9  -5   30.05   38.72
  -1   9  -5   89.45   15.01
   1  -9   5   78.67   43.91
   1  -9   5   90.60   24.80
   1  -9   5  114.10   22.21
  -2   9  -5    2.74    8.74
  -2   9  -5    3.53    5.22
  -2   9  -5   -6.34   34.38
   2  -9   5   -6.58    9.88
   2  -9   5   -1.47    2.68
   2  -9   5    7.69    9.66
  -3   9  -5   84.79   41.17
  -3   9  -5  110.88   16.04
  -3   9  -5  149.13   26.25
   3  -9   5  131.32   25.53
   3  -9   5  128.28   30.41
   5   8  -5   21.42    7.79
   5   8  -5   24.93    7.77
   5   8  -5   12.45    9.63
   4   8  -5   93.88   15.80
   4   8  -5   86.28   43.39
   4   8  -5  138.06   21.77
  -4  -8   5   41.10   30.53
   3   8  -5   19.48   10.22
   3   8  -5   14.48   28.96
  -3  -8   5   23.45   25.65
  -3  -8   5   16.49    7.10
   2   8  -5  265.50   27.15
   2   8  -5  243.30   46.36
  -2  -8   5  160.59   39.67
  -2  -8   5  209.96   22.50
  -2  -8   5  206.18   19.30
  -2  -8   5  211.38   22.34
   1   8  -5   20.61   25.77
   1   8  -5    0.17    7.39
  -1  -8   5   14.57    9.01
  -1  -8   5   10.19   26.56
  -1  -8   5    4.84    5.15
  -1  -8   5    0.10    7.16
   0   8  -5  206.85   29.12
   0   8  -5  183.97   41.13
   0  -8   5  154.28   25.22
   0  -8   5  162.61   16.70
   0  -8   5  139.77   43.02
   0  -8   5  144.98   28.15
  -1   8  -5   -1.27   27.85
  -1   8  -5    5.57    7.78
   1  -8   5    5.00    5.73
   1  -8   5  -26.45   25.60
   1  -8   5   -2.11    8.25
   1  -8   5    5.00    7.94
  -2   8  -5  138.74   17.23
  -2   8  -5   84.39   19.65
   2  -8   5  181.29   47.29
   2  -8   5  156.27   30.54
   2  -8   5  137.99   17.87
   2  -8   5   96.90   21.35
  -3   8  -5    6.45    5.06
  -3   8  -5   10.32    9.55
   3  -8   5   17.88   11.42
   3  -8   5  -25.86   33.07
   3  -8   5    1.51   10.67
  -4   8  -5  150.36   15.70
  -4   8  -5  155.00   25.60
  -4   8  -5  157.81   41.80
   4  -8   5   89.77   22.27
   4  -8   5  156.84   31.50
  -5   8  -5    5.45    8.97
  -5   8  -5  137.71   77.58
  -5   8  -5    5.73    4.78
  -5   8  -5    1.60   36.27
   5  -8   5    2.57    8.85
   5  -8   5    5.11   10.73
   7   7  -5  159.36   22.44
   7   7  -5  118.47   18.23
   6   7  -5   17.07    9.59
   6   7  -5   27.60    5.89
   6   7  -5    8.01   32.25
   6   7  -5   28.35    9.21
  -6  -7   5   46.68   24.46
  -6  -7   5   31.28    8.51
   5   7  -5  168.36   16.96
   5   7  -5  172.76   24.59
   5   7  -5  155.23   17.39
   5   7  -5  193.17   44.93
  -5  -7   5  168.05   34.03
  -5  -7   5  150.42   17.17
   4   7  -5   14.47    6.16
   4   7  -5    4.34   24.63
   4   7  -5    5.05    6.49
   4   7  -5    5.10    7.32
  -4  -7   5   11.14    5.80
  -4  -7   5   11.47    4.46
  -4  -7   5    9.05   21.12
   3   7  -5  173.13   25.23
   3   7  -5  202.12   21.01
   3   7  -5  149.08   36.69
  -3  -7   5  222.25   41.32
  -3  -7   5  199.69   19.21
  -3  -7   5  199.97   18.73
   2   7  -5   36.20   11.07
   2   7  -5   73.27   28.42
   2   7  -5   52.78   13.60
  -2  -7   5   39.00   23.72
  -2  -7   5   55.68   12.56
  -2  -7   5   38.59    9.88
  -2  -7   5   38.17    8.86
   1   7  -5  353.58   33.10
  -1  -7   5  338.30   27.87
  -1  -7   5  317.85   50.95
  -1  -7   5  371.67   36.98
  -1  -7   5  352.18   31.92
  -1  -7   5  317.71   30.34
   0   7  -5   15.03   21.80
   0   7  -5   22.97   10.38
   0  -7   5    3.85    8.91
   0  -7   5  -11.46   20.74
   0  -7   5    7.96    5.80
   0  -7   5   14.14    9.00
  -1   7  -5  221.86   41.62
  -1   7  -5  274.51   28.54
   1  -7   5  272.65   23.16
   1  -7   5  262.70   47.56
   1  -7   5  248.04   32.04
   1  -7   5  262.81   28.36
  -2   7  -5    3.47   16.82
  -2   7  -5    9.02    9.17
   2  -7   5    3.22    8.95
   2  -7   5    6.64    9.05
   2  -7   5   28.97   23.57
   2  -7   5    8.59    6.29
  -3   7  -5  229.61   20.63
  -3   7  -5  301.40   51.57
  -3   7  -5  236.98   31.75
   3  -7   5  238.92   38.59
   3  -7   5  199.73   30.62
   3  -7   5  289.84   53.80
   3  -7   5  229.31   21.98
  -4   7  -5   13.33   20.46
  -4   7  -5   13.32   10.10
  -4   7  -5   16.38    5.71
   4  -7   5   29.17   30.82
   4  -7   5   10.65   11.09
   4  -7   5   26.97   13.24
  -5   7  -5  187.65   44.38
  -5   7  -5  177.20   16.67
  -5   7  -5  196.97   30.41
   5  -7   5  153.25   31.51
   5  -7   5  169.05   28.85
  -6   7  -5   26.17   61.62
  -6   7  -5   -4.80    7.08
  -6   7  -5   19.39   32.43
  -6   7  -5   18.91    5.36
   6  -7   5    3.84    9.25
   6  -7   5   -0.33   10.61
  -7   7  -5  161.24   13.78
  -7   7  -5   41.67   42.89
  -7   7  -5  135.46   79.39
  -7   7  -5  132.83   24.23
   7  -7   5   96.02   22.26
   7  -7   5  125.78   30.66
   8   6  -5  138.65   20.54
   8   6  -5  137.13   20.63
   7   6  -5   50.28   12.40
   7   6  -5   61.95   29.90
   7   6  -5   20.51    9.34
  -7  -6   5   23.96   18.66
   6   6  -5  174.16   36.88
   6   6  -5  138.56   19.77
   6   6  -5  148.95   22.10
   6   6  -5  163.37   12.59
  -6  -6   5  145.95   19.82
  -6  -6   5  134.81   30.23
   5   6  -5   40.60    7.59
   5   6  -5   24.13    8.20
   5   6  -5   16.22    7.40
  -5  -6   5   31.86   18.63
  -5  -6   5   28.46    8.35
   4   6  -5  349.03   28.17
   4   6  -5  400.54   29.56
   4   6  -5  336.71   57.74
   4   6  -5  366.09   31.96
  -4  -6   5  322.98   28.22
  -4  -6   5  322.99   25.52
  -4  -6   5  356.84   44.03
   3   6  -5   63.35   12.02
   3   6  -5   33.21    8.66
   3   6  -5   32.74   11.00
  -3  -6   5   55.18   11.12
  -3  -6   5   42.84    8.65
  -3  -6   5   48.13   10.71
  -3  -6   5   69.34   21.76
   2   6  -5  377.48   47.21
   2   6  -5  396.39   33.16
   2   6  -5  384.42   31.08
  -2  -6   5  424.60   35.86
  -2  -6   5  346.76   29.94
  -2  -6   5  297.45   27.22
  -2  -6   5  288.26   28.95
  -2  -6   5  399.67   47.29
   1   6  -5   43.83   12.39
   1   6  -5   33.53   10.74
   1   6  -5   29.01   20.94
  -1  -6   5   44.47    9.44
  -1  -6   5   52.43   11.94
  -1  -6   5   60.25   12.99
  -1  -6   5   44.52   13.99
  -1  -6   5   20.61   17.74
   0   6  -5  209.30   23.81
   0   6  -5  245.37   25.29
   0   6  -5  213.80   37.99
   0  -6   5  200.53   26.73
   0  -6   5  236.76   40.75
   0  -6   5  237.77   20.95
   0  -6   5  263.25   25.15
   0  -6   5  234.58   23.13
  -1   6  -5   18.27   19.67
  -1   6  -5   40.95   12.46
   1  -6   5   22.45   11.86
   1  -6   5   22.37    9.82
   1  -6   5   34.37   18.82
   1  -6   5   35.42    8.73
  -2   6  -5  590.50   44.91
  -2   6  -5  580.48   59.64
   2  -6   5  484.10   47.54
   2  -6   5  557.46   58.27
   2  -6   5  482.03   38.14
   2  -6   5  520.92   43.49
  -3   6  -5   40.98   12.11
  -3   6  -5   35.11   19.40
   3  -6   5   38.12   15.14
   3  -6   5   46.34   21.73
   3  -6   5   19.49   10.62
   3  -6   5   30.20    7.92
  -4   6  -5  431.52   52.43
  -4   6  -5  357.23   27.46
  -4   6  -5  386.21   35.53
   4  -6   5  383.30   41.24
   4  -6   5  371.83   50.37
   4  -6   5  346.39   35.68
  -5   6  -5   18.25    5.20
  -5   6  -5   28.06   22.80
  -5   6  -5   18.18   10.06
   5  -6   5   15.14   10.64
   5  -6   5    9.61   10.04
   5  -6   5    3.72   24.94
  -6   6  -5  172.44   27.15
  -6   6  -5  247.34   46.31
  -6   6  -5  195.02   16.29
   6  -6   5  250.04   39.72
   6  -6   5  139.20   25.66
  -7   6  -5  -39.85   31.11
  -7   6  -5   42.66   50.09
  -7   6  -5   30.79   10.94
  -7   6  -5   14.26    4.29
   7  -6   5    2.41   11.38
   7  -6   5    8.56    8.77
  -8   6  -5   13.30   38.14
  -8   6  -5  154.19   24.53
  -8   6  -5  155.88   72.68
   8  -6   5  139.76   30.35
   8  -6   5  171.28   28.53
   9   5  -5  142.54   21.74
   9   5  -5  192.66   25.85
   8   5  -5   19.63   25.56
   8   5  -5   20.26   10.36
   8   5  -5   23.58    9.14
  -8  -5   5   52.14   20.12
   7   5  -5  138.10   35.14
   7   5  -5  180.49   23.81
   7   5  -5  210.15   21.67
  -7  -5   5  151.58   29.67
   6   5  -5   28.33   10.10
   6   5  -5   12.07    7.97
  -6  -5   5   16.87    6.99
  -6  -5   5   30.86   17.50
   5   5  -5  321.33   29.36
   5   5  -5  367.35   31.63
   5   5  -5  348.74   25.17
  -5  -5   5  402.34   42.28
  -5  -5   5  398.11   30.21
   4   5  -5   64.96   13.67
   4   5  -5   79.15   25.20
   4   5  -5   73.22   10.79
   4   5  -5   59.93   11.82
  -4  -5   5   61.35   20.73
  -4  -5   5  102.82   13.96
  -4  -5   5   39.76    8.04
  -4  -5   5   32.95    7.38
   3   5  -5  366.62   30.52
   3   5  -5  394.63   33.56
   3   5  -5  398.25   30.83
   3   5  -5  425.45   47.83
  -3  -5   5  347.90   30.40
  -3  -5   5  409.09   31.11
  -3  -5   5  439.01   31.46
  -3  -5   5  415.04   44.67
   2   5  -5   48.43   10.82
   2   5  -5   49.85    9.33
   2   5  -5   55.04   12.49
   2   5  -5    9.27   17.80
  -2  -5   5   24.43   14.69
  -2  -5   5   43.96   11.65
  -2  -5   5   46.16   10.39
  -2  -5   5   31.24    7.87
  -2  -5   5   42.65    9.93
   1   5  -5  584.36   44.11
   1   5  -5  591.15   43.43
   1   5  -5  567.23   56.35
  -1  -5   5  541.26   40.38
  -1  -5   5  631.55   47.17
  -1  -5   5  550.52   54.53
  -1  -5   5  520.18   41.87
  -1  -5   5  539.54   42.29
   0   5  -5  196.22   20.86
   0   5  -5  165.00   32.88
   0   5  -5  163.12   19.91
   0  -5   5  175.17   19.58
   0  -5   5  160.50   16.75
   0  -5   5  226.41   36.64
   0  -5   5  193.18   23.44
   0  -5   5  185.57   19.52
  -1   5  -5  822.79   69.31
  -1   5  -5  727.84   56.72
  -1   5  -5  798.20   57.11
   1  -5   5  790.71   55.66
   1  -5   5  777.05   53.13
   1  -5   5  801.71   61.11
   1  -5   5  752.11   56.44
   1  -5   5  771.33   68.84
  -2   5  -5  152.42   31.74
  -2   5  -5  129.98   20.21
   2  -5   5  106.76   19.15
   2  -5   5  133.60   17.12
   2  -5   5  155.80   31.58
   2  -5   5  127.31   24.05
  -3   5  -5  517.70   42.03
  -3   5  -5  529.57   53.74
   3  -5   5  472.86   46.27
   3  -5   5  520.27   38.20
   3  -5   5  547.66   43.39
   3  -5   5  517.80   54.66
  -4   5  -5   12.98    4.42
  -4   5  -5    0.85    6.50
  -4   5  -5   14.75   14.46
   4  -5   5   -2.10    9.13
   4  -5   5    1.91    3.32
   4  -5   5   29.43   21.35
   4  -5   5    2.64    5.89
  -5   5  -5  260.05   25.28
  -5   5  -5  188.58   39.09
  -5   5  -5  212.24   16.79
   5  -5   5  196.12   28.72
   5  -5   5  170.02   31.88
   5  -5   5  195.46   41.09
  -6   5  -5   44.39   25.69
  -6   5  -5   69.12   15.59
  -6   5  -5   41.43    6.60
   6  -5   5   41.36   26.14
   6  -5   5   15.72   14.45
   6  -5   5   51.69   14.59
  -7   5  -5  257.01   27.06
  -7   5  -5  253.62   17.88
  -7   5  -5  209.47   43.11
   7  -5   5  249.72   34.02
   7  -5   5  207.55   36.68
  -8   5  -5   -4.89   24.41
  -8   5  -5   13.40    2.96
  -8   5  -5   15.56    9.85
  -8   5  -5   10.78   37.80
   8  -5   5    5.49    7.74
   8  -5   5    3.88   11.40
  -9   5  -5  179.72   25.22
  -9   5  -5  162.35   59.03
   9  -5   5  113.33   29.21
   9  -5   5  137.05   26.25
  10   4  -5   74.21   15.66
  10   4  -5  110.97   20.19
   9   4  -5   42.28   12.67
   9   4  -5   28.62   28.84
   9   4  -5   57.10   12.83
  -9  -4   5   30.32   18.20
   8   4  -5  109.86   31.75
   8   4  -5  136.78   20.27
   8   4  -5  162.57   17.68
  -8  -4   5   91.03   24.39
   7   4  -5   16.47    8.35
   7   4  -5    9.38    7.86
  -7  -4   5   11.21   14.18
   6   4  -5  303.38   27.58
   6   4  -5  299.98   27.63
  -6  -4   5  308.21   27.36
  -6  -4   5  309.38   35.77
   5   4  -5   29.01   18.13
   5   4  -5   31.94    3.76
   5   4  -5   28.37    9.23
   5   4  -5   26.42    8.83
   5   4  -5   32.96    6.95
  -5  -4   5   23.63    7.22
  -5  -4   5   26.07    5.42
  -5  -4   5   17.50   13.33
  -5  -4   5   25.97    5.01
   4   4  -5  278.20   24.93
   4   4  -5  295.52   26.36
   4   4  -5  297.81   22.69
   4   4  -5  327.40   21.86
   4   4  -5  258.49   42.08
  -4  -4   5  343.09   37.18
  -4  -4   5  261.23   24.04
  -4  -4   5  257.67   22.66
  -4  -4   5  278.68   22.52
   3   4  -5   61.86   11.40
   3   4  -5   65.19   13.27
   3   4  -5   63.43   10.33
   3   4  -5   71.20   10.81
   3   4  -5   72.20   22.06
  -3  -4   5   68.76   11.68
  -3  -4   5   47.60   10.08
  -3  -4   5   43.87   17.38
  -3  -4   5   66.84   11.54
   2   4  -5  674.42   46.08
   2   4  -5  681.54   47.34
   2   4  -5  722.50   47.60
   2   4  -5  754.94   50.51
   2   4  -5  671.69   61.70
  -2  -4   5  610.70   47.86
  -2  -4   5  664.34   47.66
  -2  -4   5  703.92   49.90
  -2  -4   5  705.70   59.82
  -2  -4   5  660.28   47.26
   1   4  -5   93.46   22.19
   1   4  -5   84.70   12.29
   1   4  -5   76.07   13.22
   1   4  -5   61.11   10.47
   1   4  -5   85.23   14.82
  -1  -4   5  101.83   17.16
  -1  -4   5   79.14   12.44
  -1  -4   5   85.27   13.92
  -1  -4   5   83.01   13.28
  -1  -4   5   47.91   15.44
   0   4  -5 1210.90   79.50
   0   4  -5 1317.30   80.75
   0   4  -5 1116.63   76.04
   0   4  -5 1249.72   92.15
   0  -4   5 1115.48   81.47
   0  -4   5 1214.88   77.20
   0  -4   5 1214.37   79.12
   0  -4   5 1148.33   90.34
   0  -4   5 1219.99   79.16
  -1   4  -5  128.82   13.36
  -1   4  -5   87.52   23.38
  -1   4  -5  153.02   17.63
  -1   4  -5  108.30   17.41
   1  -4   5  118.18   15.53
   1  -4   5  100.02   15.97
   1  -4   5  107.14   23.70
   1  -4   5  136.13   22.09
   1  -4   5  115.72   17.49
  -2   4  -5  896.89   58.80
  -2   4  -5  759.47   61.34
  -2   4  -5  965.69   62.72
  -2   4  -5  920.16   74.15
   2  -4   5  854.24   61.71
   2  -4   5  928.51   61.13
   2  -4   5  855.88   58.47
   2  -4   5  826.70   65.25
   2  -4   5  997.00   76.82
  -3   4  -5   29.68    8.52
  -3   4  -5   22.46    9.39
  -3   4  -5   43.59   18.25
  -3   4  -5   26.18   10.88
   3  -4   5   41.00   11.61
   3  -4   5   33.97    9.08
   3  -4   5   66.80   19.95
   3  -4   5   41.32    8.93
   3  -4   5   28.86   12.29
  -4   4  -5  510.26   49.09
  -4   4  -5  466.00   36.47
   4  -4   5  419.74   33.06
   4  -4   5  373.99   39.85
   4  -4   5  369.09   34.92
   4  -4   5  465.73   48.02
  -5   4  -5    9.45    3.44
  -5   4  -5   14.37   16.74
  -5   4  -5    4.28    6.51
   5  -4   5    1.12    9.38
   5  -4   5   16.15    9.43
   5  -4   5   16.30   19.14
  -6   4  -5  466.04   54.45
  -6   4  -5  470.61   29.50
  -6   4  -5  430.79   37.22
   6  -4   5  441.33   45.13
   6  -4   5  518.40   55.62
   6  -4   5  374.01   37.93
  -7   4  -5   12.43   17.36
  -7   4  -5    6.87    2.32
  -7   4  -5    6.40    7.24
   7  -4   5   -4.90    5.96
   7  -4   5   19.48   13.27
  -8   4  -5  242.66   14.30
  -8   4  -5  244.15   64.45
  -8   4  -5  284.33   25.87
  -8   4  -5  182.02   14.13
  -8   4  -5  223.30   43.32
   8  -4   5  223.79   31.34
   8  -4   5  265.60   40.66
  -9   4  -5  -38.04   38.07
  -9   4  -5    7.70    7.65
  -9   4  -5    7.95   30.94
   9  -4   5    5.01    9.92
   9  -4   5   -2.64    7.82
 -10   4  -5  150.89   65.29
 -10   4  -5  192.13   20.07
 -10   4  -5   37.42   35.66
  10  -4   5  149.73   26.50
  10  -4   5  116.60   29.11
  10   3  -5    7.03    9.26
  10   3  -5   40.43   11.58
 -10  -3   5   19.01   19.97
   9   3  -5   82.49   16.46
   9   3  -5   99.82   17.22
   9   3  -5   44.10   30.99
  -9  -3   5   81.90   23.71
   8   3  -5   28.05    9.49
   8   3  -5   21.29    9.93
   8   3  -5   20.45   21.71
  -8  -3   5   36.42   17.51
   7   3  -5  331.37   30.18
   7   3  -5  362.03   25.21
   7   3  -5  321.10   29.26
  -7  -3   5  285.66   36.48
   6   3  -5   82.76   14.80
   6   3  -5   77.01   14.53
   6   3  -5   90.23   11.99
  -6  -3   5   67.88   20.10
  -6  -3   5   91.00   14.36
   5   3  -5  782.90   53.00
   5   3  -5  698.29   65.28
   5   3  -5  763.43   52.84
  -5  -3   5  762.33   52.52
  -5  -3   5  755.53   47.79
  -5  -3   5  732.39   61.19
  -5  -3   5  698.52   47.10
   4   3  -5    7.51    4.47
   4   3  -5    6.82    5.87
   4   3  -5    1.33    5.20
   4   3  -5    5.06   12.82
   4   3  -5    7.53    2.56
  -4  -3   5    4.83    4.42
  -4  -3   5    5.41    4.83
  -4  -3   5   -2.65    2.94
  -4  -3   5   17.76   11.48
   3   3  -5  829.65   55.51
   3   3  -5  807.93   50.65
   3   3  -5  804.41   54.21
   3   3  -5  788.80   67.86
   3   3  -5  789.99   51.63
  -3  -3   5  804.13   63.85
  -3  -3   5  703.04   53.00
  -3  -3   5  837.92   52.71
  -3  -3   5  808.39   52.53
  -3  -3   5  761.08   53.69
   2   3  -5   14.18    5.85
   2   3  -5    8.57    5.81
   2   3  -5   10.20    4.79
   2   3  -5    5.69    4.33
   2   3  -5   -3.39    8.87
  -2  -3   5    8.91    5.29
  -2  -3   5   12.36    6.03
  -2  -3   5    1.10    4.71
  -2  -3   5   12.96    9.49
  -2  -3   5    7.59    5.03
   1   3  -5  501.57   39.42
   1   3  -5  524.88   37.97
   1   3  -5  455.29   48.05
   1   3  -5  584.26   37.35
   1   3  -5  602.71   38.87
  -1  -3   5  554.95   40.79
  -1  -3   5  492.76   37.82
  -1  -3   5  557.84   38.63
  -1  -3   5  480.80   38.73
  -1  -3   5  552.82   48.63
   0   3  -5   27.37    6.40
   0   3  -5   25.31    7.49
   0   3  -5   43.09   10.31
   0   3  -5   31.17   15.03
   0  -3   5   28.45   12.95
   0  -3   5   16.67    6.75
   0  -3   5   31.09    8.67
   0  -3   5   25.06    7.11
   0  -3   5   22.96    9.14
  -1   3  -5  875.00   56.64
  -1   3  -5  793.79   66.18
  -1   3  -5  782.39   52.99
  -1   3  -5  730.32   55.37
   1  -3   5  835.01   55.84
   1  -3   5  849.24   54.18
   1  -3   5  821.19   66.25
   1  -3   5  773.40   58.15
   1  -3   5  836.77   55.53
  -2   3  -5    7.73    4.59
  -2   3  -5    4.79    4.59
  -2   3  -5    7.95    4.93
  -2   3  -5   16.34   10.69
   2  -3   5   -0.25    4.98
   2  -3   5   12.37   11.80
   2  -3   5    5.48    7.35
   2  -3   5    2.95    4.21
   2  -3   5   12.36    6.45
  -3   3  -5  621.37   52.64
  -3   3  -5  767.69   63.91
  -3   3  -5  717.60   49.46
  -3   3  -5  839.15   53.37
   3  -3   5  771.94   50.75
   3  -3   5  754.74   52.94
   3  -3   5  799.84   52.50
   3  -3   5  703.61   56.44
   3  -3   5  702.00   63.40
  -4   3  -5    3.49    4.80
  -4   3  -5   18.91    8.02
  -4   3  -5    4.39    5.20
  -4   3  -5   12.22    9.84
   4  -3   5    4.12   13.42
   4  -3   5    4.73    7.74
   4  -3   5    4.05    4.84
   4  -3   5   10.74    4.80
  -5   3  -5  649.53   44.43
  -5   3  -5  588.76   36.32
  -5   3  -5  608.21   57.21
  -5   3  -5  538.08   40.35
   5  -3   5  553.86   56.03
   5  -3   5  501.17   48.12
   5  -3   5  588.77   45.01
  -6   3  -5   39.56   11.02
  -6   3  -5   51.81   20.52
  -6   3  -5   46.73    4.94
  -6   3  -5   66.98   10.81
   6  -3   5   21.09   20.03
   6  -3   5   41.52   15.04
   6  -3   5   59.62   14.00
  -7   3  -5  567.82   41.47
  -7   3  -5  556.00   57.74
  -7   3  -5  524.42   38.31
  -7   3  -5  542.39   32.07
  -7   3  -5  560.57   32.48
   7  -3   5  418.15   46.18
   7  -3   5  534.20   43.74
   7  -3   5  446.55   54.24
  -8   3  -5   38.52    8.62
  -8   3  -5   64.57   37.01
  -8   3  -5   36.65    9.64
  -8   3  -5    2.15   22.52
   8  -3   5   18.92   14.35
   8  -3   5   36.65   11.98
  -9   3  -5  266.77   22.30
  -9   3  -5  250.11   60.58
   9  -3   5  206.40   36.71
   9  -3   5  257.73   28.74
 -10   3  -5    5.67    4.92
 -10   3  -5    8.74    6.69
 -10   3  -5   -2.47   45.05
  10  -3   5   -6.18    9.30
  10  -3   5   -5.11    5.88
  11   2  -5   39.41   12.11
  11   2  -5   39.18   14.03
  10   2  -5  126.88   21.33
  10   2  -5  103.84   36.38
  10   2  -5  134.76   20.54
 -10  -2   5   98.17   30.16
   9   2  -5   23.45   10.01
   9   2  -5   -0.08   23.71
   9   2  -5    7.61    7.91
  -9  -2   5   13.52   18.07
   8   2  -5  203.49   18.98
   8   2  -5  187.11   24.83
   8   2  -5  185.52   20.81
  -8  -2   5  169.13   31.16
   7   2  -5   65.03   13.63
   7   2  -5   42.64    7.70
   7   2  -5   43.67   11.26
  -7  -2   5   48.91   17.59
   6   2  -5  368.26   42.32
   6   2  -5  339.72   29.49
   6   2  -5  377.36   28.62
   6   2  -5  356.61   25.54
   6   2  -5  305.02   28.57
  -6  -2   5  327.25   28.45
  -6  -2   5  365.09   39.42
  -6  -2   5  330.43   23.02
   5   2  -5   80.35   22.50
   5   2  -5   83.32   14.19
   5   2  -5   84.27    9.48
   5   2  -5  101.34   15.57
   5   2  -5   96.18   12.44
  -5  -2   5   80.82   13.48
  -5  -2   5   88.90    9.74
  -5  -2   5   88.44    9.92
  -5  -2   5   57.91   17.80
   4   2  -5  806.57   52.86
   4   2  -5  803.50   55.81
   4   2  -5  852.76   69.46
   4   2  -5  780.25   55.30
  -4  -2   5  838.99   52.50
  -4  -2   5  783.02   53.57
  -4  -2   5  815.22   55.44
  -4  -2   5  841.67   65.69
   3   2  -5   76.74    7.29
   3   2  -5  101.81   14.48
   3   2  -5   88.73   22.21
   3   2  -5   81.27   12.66
   3   2  -5   78.25   10.65
  -3  -2   5   86.52   13.23
  -3  -2   5   67.85    8.67
  -3  -2   5   96.61   13.23
  -3  -2   5   90.31   11.97
  -3  -2   5   98.60   19.20
   2   2  -5  968.34   65.94
   2   2  -5 1038.32   62.99
   2   2  -5 1023.71   65.39
   2   2  -5 1005.49   78.24
  -2  -2   5 1030.68   64.39
  -2  -2   5  951.69   73.54
  -2  -2   5  957.74   65.30
  -2  -2   5 1007.48   63.77
  -2  -2   5  964.14   64.97
   1   2  -5  278.55   21.53
   1   2  -5  210.64   19.18
   1   2  -5  296.49   32.76
   1   2  -5  292.31   22.65
   1   2  -5  218.34   18.51
  -1  -2   5  244.79   20.89
  -1  -2   5  241.22   21.55
  -1  -2   5  242.21   20.21
  -1  -2   5  301.00   29.92
  -1  -2   5  232.59   21.31
   0   2  -5 1393.01   82.15
   0   2  -5 1330.79   81.91
   0   2  -5 1384.13   95.06
   0   2  -5 1292.49   83.06
   0   2  -5 1288.00   80.03
   0  -2   5 1287.89   91.57
   0  -2   5 1273.89   81.41
   0  -2   5 1250.67   82.46
   0  -2   5 1216.54   81.28
   0  -2   5 1209.24   83.29
  -1   2  -5   59.58   11.19
  -1   2  -5   61.51   16.93
   1  -2   5   76.74   17.31
   1  -2   5   66.07   11.41
   1  -2   5   81.50   11.36
  -2   2  -5  752.48   50.43
  -2   2  -5  730.13   59.32
  -2   2  -5  737.35   46.85
  -2   2  -5  693.64   49.01
   2  -2   5  643.84   47.95
   2  -2   5  750.75   52.77
   2  -2   5  645.05   48.08
   2  -2   5  750.32   59.07
   2  -2   5  664.66   47.30
  -3   2  -5    4.08    3.88
  -3   2  -5    5.30    6.91
  -3   2  -5    0.45    3.35
  -3   2  -5    7.45    5.48
   3  -2   5    1.82    3.52
   3  -2   5   10.95    9.20
   3  -2   5    1.10    4.25
   3  -2   5    1.32    3.85
   3  -2   5    3.95    5.49
  -4   2  -5  761.90   50.89
  -4   2  -5  774.02   61.60
  -4   2  -5  731.69   53.14
  -4   2  -5  718.65   48.11
   4  -2   5  702.72   50.06
   4  -2   5  680.64   55.26
   4  -2   5  722.47   50.93
   4  -2   5  707.05   61.30
  -5   2  -5   11.30   10.45
  -5   2  -5    1.92    3.89
  -5   2  -5    5.20    6.70
  -5   2  -5   10.55    6.05
  -5   2  -5    2.73    2.00
   5  -2   5   -2.67    8.23
   5  -2   5    1.81   11.49
   5  -2   5    8.18    6.25
   5  -2   5    6.52    5.39
  -6   2  -5  654.72   39.79
  -6   2  -5  660.32   44.96
  -6   2  -5  680.35   40.14
  -6   2  -5  638.86   59.83
  -6   2  -5  676.23   47.43
   6  -2   5  639.53   48.65
   6  -2   5  718.83   61.88
   6  -2   5  665.19   55.54
  -7   2  -5   41.27    9.81
  -7   2  -5   24.22    6.53
  -7   2  -5    5.68   13.23
   7  -2   5   36.53   10.54
   7  -2   5   25.68   16.02
   7  -2   5   21.80   11.50
  -8   2  -5  220.71   22.48
  -8   2  -5  312.88   23.27
   8  -2   5  302.32   28.22
   8  -2   5  252.78   31.80
  -9   2  -5   42.16    8.52
  -9   2  -5   53.13    9.45
  -9   2  -5   34.01   20.86
  -9   2  -5    4.67   33.28
   9  -2   5   34.81   15.12
   9  -2   5    5.60    8.42
 -10   2  -5  218.94   57.31
 -10   2  -5  180.95   16.65
  10  -2   5  148.84   31.53
  10  -2   5  171.24   26.60
 -11   2  -5    5.87   28.42
 -11   2  -5   -1.77    1.90
 -11   2  -5    0.17    1.82
  11  -2   5    8.33   13.29
  11  -2   5    5.05    8.68
  11   1  -5  132.46   21.12
  11   1  -5   83.13   18.19
  10   1  -5   17.32   10.08
  10   1  -5    2.01   30.57
  10   1  -5   32.55   10.70
 -10  -1   5   31.50   21.63
   9   1  -5  323.35   29.12
   9   1  -5  286.37   29.08
  -9  -1   5  236.63   39.15
   8   1  -5   49.50   12.23
   8   1  -5   84.44   16.58
   8   1  -5   72.66   10.81
  -8  -1   5   54.20   20.58
   7   1  -5  286.03   25.69
   7   1  -5  257.61   42.78
   7   1  -5  262.85   24.26
   7   1  -5  260.51   20.36
   7   1  -5  244.18   20.43
  -7  -1   5  300.34   37.96
  -7  -1   5  224.18   17.30
   6   1  -5    2.39   12.70
   6   1  -5    1.32    4.35
   6   1  -5   -2.00    4.12
   6   1  -5   -1.57    2.87
  -6  -1   5   -3.26   11.46
  -6  -1   5   -1.39    3.12
  -6  -1   5   -1.83    3.64
  -6  -1   5    5.66    3.78
   5   1  -5  348.34   44.22
   5   1  -5  503.40   32.75
   5   1  -5  526.61   32.53
   5   1  -5  460.86   35.50
   5   1  -5  409.84   35.07
  -5  -1   5  542.25   32.17
  -5  -1   5  450.74   35.19
  -5  -1   5  462.53   45.62
  -5  -1   5  407.61   32.24
   4   1  -5   23.23    7.87
   4   1  -5   25.15    5.92
   4   1  -5   33.16    6.37
   4   1  -5   13.86   12.08
   4   1  -5   18.65    7.03
  -4  -1   5   27.01    6.14
  -4  -1   5   45.90   15.46
  -4  -1   5   24.31    7.21
  -4  -1   5   36.13    7.78
   3   1  -5  941.13   64.23
   3   1  -5  976.57   64.96
   3   1  -5 1001.02   61.69
   3   1  -5 1022.93   62.01
   3   1  -5  910.26   76.08
  -3  -1   5  931.22   63.72
  -3  -1   5  919.49   73.57
  -3  -1   5 1036.07   60.33
  -3  -1   5 1038.46   61.99
  -3  -1   5  970.57   64.18
   2   1  -5   94.59    9.42
   2   1  -5   75.48   11.93
   2   1  -5  115.40    8.76
   2   1  -5   54.85   16.44
   2   1  -5   60.08   11.46
  -2  -1   5   90.59   18.62
  -2  -1   5   53.15   10.97
  -2  -1   5   52.76   10.39
  -2  -1   5   88.31   11.11
  -2  -1   5   98.56   10.07
   1   1  -5  784.98   52.02
   1   1  -5  760.14   48.34
   1   1  -5  771.45   48.97
   1   1  -5  828.04   51.47
   1   1  -5  819.43   63.33
  -1  -1   5  701.96   51.03
  -1  -1   5  819.89   60.63
  -1  -1   5  734.17   50.87
  -1  -1   5  777.32   49.58
  -1  -1   5  701.30   49.90
   0   1  -5  364.51   25.36
   0   1  -5  380.58   37.62
   0   1  -5  383.77   27.42
   0   1  -5  381.82   28.76
   0   1  -5  375.46   26.31
   0   1  -5  401.06   28.35
   0  -1   5  408.46   27.44
   0  -1   5  329.56   28.10
   0  -1   5  338.41   28.37
   0  -1   5  368.58   35.13
   0  -1   5  405.41   28.47
  -1   1  -5  861.21   55.14
  -1   1  -5  899.63   57.40
  -1   1  -5  840.97   66.77
  -1   1  -5  875.39   53.84
  -1   1  -5  887.27   57.85
   1  -1   5  878.25   57.66
   1  -1   5  818.54   58.52
   1  -1   5  960.60   66.52
   1  -1   5  852.30   56.67
   1  -1   5  847.15   56.10
  -2   1  -5  156.58   16.12
  -2   1  -5  150.64   24.26
  -2   1  -5  147.07   11.80
  -2   1  -5  175.68   16.16
  -2   1  -5  161.07   13.72
   2  -1   5  162.58   21.84
   2  -1   5  168.92   15.02
   2  -1   5  150.43   14.63
   2  -1   5  159.96   15.39
   2  -1   5  122.74   17.05
  -3   1  -5  880.21   56.67
  -3   1  -5  764.59   63.17
  -3   1  -5  777.46   54.09
  -3   1  -5  805.41   49.73
  -3   1  -5  838.71   52.32
   3  -1   5  871.00   58.85
   3  -1   5  892.89   54.48
   3  -1   5  720.57   53.34
   3  -1   5  768.70   53.97
   3  -1   5  811.61   63.25
  -4   1  -5   73.81   18.25
  -4   1  -5  100.58    8.09
  -4   1  -5  117.04   12.74
  -4   1  -5   97.78   13.17
  -4   1  -5   97.84   10.48
   4  -1   5   97.14   19.36
   4  -1   5  131.38   16.05
   4  -1   5  122.95   20.15
   4  -1   5  122.97   15.54
  -5   1  -5 1188.69   87.52
  -5   1  -5 1243.59   74.06
  -5   1  -5 1102.63   79.01
   5  -1   5 1198.42   87.63
   5  -1   5 1229.48   77.00
   5  -1   5 1104.03   81.67
   5  -1   5 1194.34   76.36
  -6   1  -5   18.69    6.99
  -6   1  -5   13.39    5.86
  -6   1  -5   22.87    6.20
   6  -1   5    7.53    5.95
   6  -1   5   21.65    6.83
   6  -1   5    8.35   11.21
   6  -1   5    6.70    8.91
  -7   1  -5  183.40   31.75
  -7   1  -5  210.18   18.76
  -7   1  -5  216.01   17.61
   7  -1   5  244.76   21.13
   7  -1   5  206.80   27.02
   7  -1   5  190.85   33.23
   7  -1   5  215.90   21.43
  -8   1  -5   10.11    5.28
  -8   1  -5   10.78   14.75
   8  -1   5   -0.36    5.49
   8  -1   5    6.10    9.81
  -9   1  -5  156.01   33.07
  -9   1  -5  179.32   45.34
   9  -1   5  218.70   22.71
   9  -1   5  222.60   34.17
 -10   1  -5   25.24    4.22
 -10   1  -5   16.05   30.85
 -10   1  -5   18.12   22.19
  10  -1   5   14.95   13.29
  10  -1   5   21.47    9.07
  11  -1   5  162.88   24.99
  11  -1   5  141.59   28.95
  11   0  -5   11.86    9.33
  11   0  -5   35.30   12.38
  10   0  -5  229.09   49.08
  10   0  -5  166.13   25.07
  10   0  -5  195.40   27.50
 -10   0   5  170.27   38.86
   9   0  -5  128.09   21.72
   9   0  -5  160.48   22.34
  -9   0   5  128.76   32.78
   8   0  -5  325.65   30.02
   8   0  -5  374.76   31.16
   8   0  -5  346.43   61.36
   8   0  -5  277.56   28.05
  -8   0   5  321.39   22.39
  -8   0   5  394.44   46.93
   7   0  -5   86.60   12.00
   7   0  -5   64.35   13.58
   7   0  -5   69.14    9.88
   7   0  -5   81.79   15.34
   7   0  -5   33.94   21.98
  -7   0   5  119.29   27.57
  -7   0   5   78.67    8.63
  -7   0   5   64.78    9.98
   6   0  -5  284.83   24.70
   6   0  -5  237.05   20.32
   6   0  -5  278.88   20.76
   6   0  -5  284.03   24.80
   6   0  -5  275.54   43.13
  -6   0   5  258.52   23.67
  -6   0   5  274.90   19.92
  -6   0   5  212.96   35.70
  -6   0   5  264.25   21.74
   5   0  -5   10.31    6.44
   5   0  -5   13.61    4.25
   5   0  -5    8.07    6.00
   5   0  -5    3.56    3.45
   5   0  -5    6.83   11.67
  -5   0   5    8.84    5.24
  -5   0   5   10.85    5.70
  -5   0   5    3.49   11.17
   4   0  -5 1046.56   83.56
   4   0  -5 1093.34   70.33
   4   0  -5 1091.61   70.40
   4   0  -5 1085.51   66.78
   4   0  -5 1068.30   66.76
  -4   0   5  909.11   68.83
  -4   0   5 1121.70   82.62
  -4   0   5 1182.58   66.78
  -4   0   5 1015.57   68.57
   3   0  -5  302.09   24.30
   3   0  -5  360.18   36.40
   3   0  -5  291.12   21.27
   3   0  -5  300.82   24.53
   3   0  -5  286.98   21.34
  -3   0   5  272.54   19.43
  -3   0   5  297.16   21.45
  -3   0   5  322.41   24.26
  -3   0   5  266.70   23.39
  -3   0   5  332.74   34.10
   2   0  -5 1451.65  107.73
   2   0  -5 1699.94   93.56
   2   0  -5 1439.79   95.46
  -2   0   5 1421.40  105.20
  -2   0   5 1560.67   96.33
  -2   0   5 1599.97   96.14
   1   0  -5  226.89   20.97
   1   0  -5  257.11   30.28
   1   0  -5  263.20   22.05
   1   0  -5  314.60   19.93
  -1   0   5  241.45   27.34
  -1   0   5  248.44   21.46
  -1   0   5  283.05   21.67
   0   0  -5 4215.66  257.52
   0   0   5 4034.89  254.23
  -1   0  -5  849.62   62.76
  -1   0  -5  859.98   52.78
  -1   0  -5  786.44   48.76
  -1   0  -5  785.78   51.68
  -1   0  -5  859.30   52.82
   1   0   5  756.83   50.24
   1   0   5  705.13   52.14
   1   0   5  759.85   58.83
   1   0   5  832.38   52.66
   1   0   5  763.86   51.68
  -2   0  -5 1709.87  110.93
   2   0   5 1575.73   99.79
   2   0   5 1593.93  100.07
   2   0   5 1614.32  107.64
  -3   0  -5   97.96   18.77
  -3   0  -5  146.79   13.95
  -3   0  -5  104.67    8.26
  -3   0  -5   95.25   11.15
   3   0   5  146.03   15.26
   3   0   5   78.64   16.21
   3   0   5   88.69   13.07
   3   0   5  108.52   11.21
  -4   0  -5 1403.47   82.25
  -4   0  -5 1365.70   85.51
   4   0   5 1245.76   82.33
   4   0   5 1275.16   90.78
   4   0   5 1267.65   86.83
  -5   0  -5   75.68    5.07
  -5   0  -5   71.25   17.32
  -5   0  -5   86.87   11.39
  -5   0  -5   69.17   13.03
   5   0   5  100.78   19.55
   5   0   5   81.97   11.96
   5   0   5   70.32   15.69
   5   0   5   92.15   12.83
  -6   0  -5  275.12   31.29
  -6   0  -5  260.88   20.44
  -6   0  -5  297.04   26.09
   6   0   5  272.59   27.75
   6   0   5  300.14   23.27
   6   0   5  230.89   21.52
   6   0   5  264.14   30.72
  -7   0  -5   23.94    5.02
  -7   0  -5   25.30    5.48
  -7   0  -5   15.43   12.35
   7   0   5   15.71    6.81
   7   0   5   26.30    6.89
   7   0   5   12.61   12.16
   7   0   5   24.18   11.64
  -8   0  -5  337.17   21.35
  -8   0  -5  315.83   37.77
   8   0   5  296.33   26.51
   8   0   5  265.77   31.86
   8   0   5  306.52   25.82
  -9   0  -5   18.55   23.91
  -9   0  -5   15.30   17.01
   9   0   5   33.40   14.19
   9   0   5   19.62    8.72
 -10   0  -5  340.28   41.70
 -10   0  -5  247.86   48.50
  10   0   5  252.22   38.00
  10   0   5  263.11   26.98
 -11   0  -5   12.29   23.75
 -11   0  -5   -7.17   29.20
  11   0   5   12.90   12.88
  11   0   5    4.97    7.24
  11  -1  -5   84.46   18.12
  11  -1  -5  141.43   23.73
 -11   1   5   70.32   35.29
  10  -1  -5   27.04   11.69
  10  -1  -5   28.17   11.06
  10  -1  -5   -7.27   28.97
 -10   1   5   37.04    3.73
 -10   1   5   16.73   23.64
   9  -1  -5  208.74   27.64
   9  -1  -5  225.73   56.25
   9  -1  -5  244.25   30.71
  -9   1   5  259.30   19.50
  -9   1   5  226.61   41.75
  -9   1   5  225.69   17.74
   8  -1  -5   51.02   13.02
   8  -1  -5   44.96   12.17
   8  -1  -5   53.71    8.17
   8  -1  -5   51.90   25.61
  -8   1   5   38.69    6.96
  -8   1   5   46.43    5.07
  -8   1   5   62.17   10.13
  -8   1   5   27.45   21.56
   7  -1  -5  497.12   40.19
   7  -1  -5  552.98   40.88
   7  -1  -5  466.93   35.96
   7  -1  -5  517.11   34.98
   7  -1  -5  571.92   60.12
  -7   1   5  470.22   36.46
  -7   1   5  567.33   56.70
  -7   1   5  511.65   32.23
   6  -1  -5    8.36    6.92
   6  -1  -5   20.34    5.86
   6  -1  -5    8.21   15.87
   6  -1  -5   18.30    7.83
   6  -1  -5   13.93    4.49
  -6   1   5   20.07    4.30
  -6   1   5   21.65    7.15
  -6   1   5   19.50    7.07
  -6   1   5   22.97   15.97
   5  -1  -5  564.34   56.45
   5  -1  -5  628.31   42.88
   5  -1  -5  549.75   41.66
   5  -1  -5  584.30   38.76
   5  -1  -5  515.99   37.55
  -5   1   5  636.96   56.12
  -5   1   5  550.05   40.39
  -5   1   5  575.52   36.77
  -5   1   5  605.59   42.05
   4  -1  -5   92.01   23.37
   4  -1  -5  125.16   11.86
   4  -1  -5  143.94   15.29
   4  -1  -5  123.98   16.44
   4  -1  -5  131.32   11.30
  -4   1   5  131.02   16.52
  -4   1   5  123.01   10.75
  -4   1   5  130.67   25.01
  -4   1   5  126.01   13.77
  -4   1   5  155.17   12.73
  -4   1   5  113.25   11.18
   3  -1  -5 1430.98   90.99
   3  -1  -5 1528.11   88.05
   3  -1  -5 1434.55   91.49
   3  -1  -5 1402.36  104.23
  -3   1   5 1361.17   90.70
  -3   1   5 1467.95   90.95
  -3   1   5 1487.45  103.38
   2  -1  -5   58.68    8.54
   2  -1  -5   85.48   11.81
   2  -1  -5   59.10    7.75
   2  -1  -5   82.95   19.16
   2  -1  -5   58.79   11.05
  -2   1   5   51.59    7.49
  -2   1   5   68.69   10.76
  -2   1   5   59.83    8.18
  -2   1   5   56.24   16.62
  -2   1   5   92.11   12.73
  -1   1   5 5003.13  306.93
   0  -1  -5   92.15   12.17
   0  -1  -5   88.16   11.25
   0  -1  -5   75.03   16.97
   0   1   5   70.11   10.32
   0   1   5   83.80   11.94
   0   1   5   92.74   16.88
  -1  -1  -5 2100.29  141.52
   1   1   5 2216.67  139.60
  -2  -1  -5   88.46   10.33
   2   1   5   91.93   10.36
   2   1   5   41.87   11.42
   2   1   5   65.51    6.30
   2   1   5   70.52    7.83
  -3  -1  -5 1800.69  101.74
   3   1   5 1455.03  104.85
   3   1   5 1509.22   98.79
   3   1   5 1682.57  102.13
  -4  -1  -5   15.04    8.88
  -4  -1  -5   23.03    5.12
   4   1   5   26.27    6.14
  -5  -1  -5 1195.62   72.60
  -5  -1  -5 1397.81   86.94
  -5  -1  -5 1329.11   79.35
   5   1   5 1039.09   78.77
   5   1   5 1175.81   73.98
   5   1   5 1144.57   74.65
   5   1   5 1104.33   81.87
  -6  -1  -5   10.48    9.57
  -6  -1  -5   -0.33    1.72
  -6  -1  -5    0.11    1.90
  -6  -1  -5    1.95    4.76
   6   1   5    9.65    7.24
   6   1   5    0.27    3.56
   6   1   5    2.28    3.19
   6   1   5    6.25    8.03
  -7  -1  -5  545.06   46.86
  -7  -1  -5  557.23   42.16
   7   1   5  490.80   43.39
   7   1   5  512.36   37.40
   7   1   5  536.50   46.74
   7   1   5  546.73   37.73
  -8  -1  -5   -2.62   10.63
   8   1   5    3.19    4.37
   8   1   5    0.64    3.76
   8   1   5    9.88    8.14
  -9  -1  -5  431.09   43.60
  -9  -1  -5  418.82   51.57
   9   1   5  394.27   32.46
   9   1   5  394.32   39.49
   9   1   5  419.86   31.92
 -10  -1  -5    0.49   21.67
 -10  -1  -5   -1.73   16.49
  10   1   5    4.76    5.76
  10   1   5    7.76   10.51
 -11  -1  -5  137.54   31.47
 -11  -1  -5  163.19   39.32
  11   1   5  177.54   30.85
  11   1   5  129.28   19.60
  11  -2  -5   18.06   10.90
  11  -2  -5   39.58   48.54
  11  -2  -5   22.49   12.42
 -11   2   5  -19.97   32.22
  10  -2  -5  141.29   23.20
  10  -2  -5   82.72   41.90
  10  -2  -5  131.51   22.19
 -10   2   5   98.33   37.71
 -10   2   5  126.84   12.56
 -10   2   5  121.13   13.81
   9  -2  -5    7.21    7.56
   9  -2  -5   25.47   10.38
  -9   2   5   17.46    5.44
  -9   2   5   28.63   25.36
  -9   2   5   22.46    7.42
   8  -2  -5  501.68   34.06
   8  -2  -5  510.84   40.85
   8  -2  -5  457.97   39.92
   8  -2  -5  542.03   62.82
  -8   2   5  493.40   36.95
  -8   2   5  444.14   34.66
  -8   2   5  550.27   59.88
  -8   2   5  506.64   33.92
   7  -2  -5   96.92   17.07
   7  -2  -5  165.71   21.39
   7  -2  -5  122.60   14.11
   7  -2  -5  133.67   12.46
   7  -2  -5  199.78   40.39
  -7   2   5  149.54   15.52
  -7   2   5  124.12   14.05
  -7   2   5  155.69   13.67
  -7   2   5  153.99   34.35
   6  -2  -5  705.92   71.75
   6  -2  -5  833.85   55.52
   6  -2  -5  757.70   54.20
   6  -2  -5  800.62   51.44
   6  -2  -5  782.86   49.11
  -6   2   5  813.69   49.60
  -6   2   5  699.86   50.40
  -6   2   5  742.11   52.54
  -6   2   5  784.35   50.01
  -6   2   5  760.26   53.81
  -6   2   5  663.17   68.21
   5  -2  -5  106.83   27.13
   5  -2  -5   82.85    9.94
   5  -2  -5   67.33   13.64
   5  -2  -5   73.43   10.96
   5  -2  -5   55.48   12.04
  -5   2   5  100.99   14.55
  -5   2   5   82.21   10.50
  -5   2   5   48.94   19.02
  -5   2   5   87.19   12.10
  -5   2   5   69.44    9.58
  -5   2   5  102.50   14.34
   4  -2  -5  964.43   60.07
   4  -2  -5  825.30   74.22
   4  -2  -5  848.70   55.35
   4  -2  -5  915.43   57.17
   4  -2  -5  881.98   60.08
  -4   2   5  922.60   73.49
  -4   2   5  884.57   57.01
  -4   2   5  855.41   59.02
  -4   2   5  921.91   56.21
  -4   2   5  840.80   58.77
  -4   2   5  889.70   55.92
   3  -2  -5    4.87    3.67
   3  -2  -5   -2.67    8.95
   3  -2  -5    1.29    2.28
   3  -2  -5    6.62    3.05
   3  -2  -5    5.11    5.28
  -3   2   5    4.31    4.51
  -3   2   5    2.96    2.24
  -3   2   5    1.93    3.81
  -3   2   5    7.08    3.69
  -3   2   5    7.28    9.78
   2  -2  -5 2842.15  180.19
  -2   2   5 2634.95  177.00
   1  -2  -5   11.76    9.17
   1  -2  -5    3.48    2.29
   1  -2  -5   14.39    4.17
   1  -2  -5    6.26    4.39
   1  -2  -5    4.42    3.71
  -1   2   5   16.02    6.21
  -1   2   5    7.97    4.05
  -1   2   5    8.30    3.11
  -1   2   5   17.01    9.00
  -1   2   5    4.71    2.83
   0  -2  -5 1374.43   90.99
   0  -2  -5 1250.19   76.52
   0   2   5 1284.54   78.70
   0   2   5 1166.28   78.80
   0   2   5 1250.28   88.29
  -1  -2  -5   40.54    7.49
  -1  -2  -5   28.87    5.28
  -1  -2  -5   16.64    9.01
  -1  -2  -5   37.91    7.35
  -1  -2  -5   37.98    5.01
   1   2   5   30.82    7.02
   1   2   5   43.03   12.36
   1   2   5   39.51    5.06
   1   2   5   39.73    5.64
   1   2   5   44.18    7.88
   1   2   5   56.27    8.70
   2   2   5 1373.82   86.47
   2   2   5 1426.00   93.71
  -3  -2  -5  354.79   23.73
  -3  -2  -5  376.84   24.82
  -3  -2  -5  371.80   23.30
  -3  -2  -5  369.85   35.06
   3   2   5  405.26   26.57
   3   2   5  414.24   32.38
   3   2   5  371.38   27.16
   3   2   5  336.65   27.80
   3   2   5  345.39   23.21
  -4  -2  -5 1170.84   81.00
   4   2   5 1050.98   70.67
   4   2   5 1262.08   75.47
   4   2   5 1099.20   76.56
  -5  -2  -5   30.41   11.55
   5   2   5   39.47    6.85
   5   2   5   37.92    6.42
   5   2   5   26.81    8.64
   5   2   5   51.82   11.82
   5   2   5   43.78    3.75
  -6  -2  -5  683.23   53.76
   6   2   5  745.31   50.87
   6   2   5  632.19   39.56
   6   2   5  738.25   43.70
   6   2   5  637.13   43.81
   6   2   5  619.29   50.31
  -7  -2  -5   33.04   12.63
   7   2   5   22.69    5.75
   7   2   5   30.00    6.43
   7   2   5   25.21   10.73
   7   2   5   24.74    9.78
  -8  -2  -5  404.32   39.24
  -8  -2  -5  419.50   45.16
   8   2   5  383.10   29.51
   8   2   5  425.01   37.64
   8   2   5  403.68   29.77
  -9  -2  -5    3.12   16.35
  -9  -2  -5   14.79   14.02
   9   2   5   20.23    6.68
   9   2   5   17.35    5.94
   9   2   5   12.96   10.31
 -10  -2  -5  129.82   26.01
 -10  -2  -5  161.20   32.18
  10   2   5  141.10   18.78
  10   2   5  138.09   24.98
  10   2   5  160.30   15.83
 -11  -2  -5   37.20   24.47
 -11  -2  -5  -10.93   18.02
  11   2   5    4.66    6.24
  11   2   5    6.27   11.17
  11  -3  -5  101.06   21.91
  11  -3  -5   90.57   50.55
  11  -3  -5  123.25   22.87
 -11   3   5   39.51   38.98
  10  -3  -5   18.49    9.44
  10  -3  -5   19.84   36.67
  10  -3  -5   49.97   15.00
 -10   3   5   53.31   33.03
 -10   3   5   38.76    7.82
 -10   3   5   49.08   10.98
 -10   3   5   45.23    9.96
   9  -3  -5  214.77   27.88
   9  -3  -5  218.53   28.96
  -9   3   5  227.20   18.99
  -9   3   5  252.92   49.42
  -9   3   5  189.22   21.51
  -9   3   5  209.41   20.93
   8  -3  -5   26.88    9.80
   8  -3  -5   30.71    5.78
   8  -3  -5   30.50   28.24
   8  -3  -5   26.60   10.55
  -8   3   5   33.61    9.55
  -8   3   5   36.45    9.74
  -8   3   5   16.37    6.12
  -8   3   5   20.06   23.02
  -8   3   5   29.07    6.81
   7  -3  -5  398.83   29.05
   7  -3  -5  394.97   35.50
   7  -3  -5  406.68   35.17
   7  -3  -5  514.04   59.31
  -7   3   5  467.22   55.32
  -7   3   5  392.40   29.98
  -7   3   5  393.14   33.46
  -7   3   5  423.19   30.38
  -7   3   5  512.57   35.24
   6  -3  -5  148.41   14.68
   6  -3  -5  117.78   12.04
   6  -3  -5  136.38   20.20
   6  -3  -5  155.03   33.58
   6  -3  -5  151.57   19.71
  -6   3   5  161.15   16.93
  -6   3   5  136.42   18.42
  -6   3   5  130.09   15.96
  -6   3   5  178.81   35.27
  -6   3   5  142.36   13.15
  -6   3   5  142.77   13.68
   5  -3  -5  518.10   37.43
   5  -3  -5  493.35   32.82
   5  -3  -5  447.13   34.83
   5  -3  -5  419.10   52.78
   5  -3  -5  521.33   38.57
  -5   3   5  520.20   34.24
  -5   3   5  492.65   33.14
  -5   3   5  515.89   54.03
  -5   3   5  474.20   36.15
  -5   3   5  504.01   37.42
  -5   3   5  477.85   36.78
   4  -3  -5  170.22   16.79
   4  -3  -5  143.34   32.11
   4  -3  -5  145.17   14.48
   4  -3  -5  190.20   18.57
   4  -3  -5  167.05   13.38
  -4   3   5  176.00   31.90
  -4   3   5  164.21   13.58
  -4   3   5  162.04   16.03
  -4   3   5  176.84   14.76
  -4   3   5  142.64   16.27
  -4   3   5  155.27   15.49
   3  -3  -5 1813.56  107.21
   3  -3  -5 1647.91  104.92
   3  -3  -5 1897.41  128.38
   3  -3  -5 1692.94  109.64
   3  -3  -5 1757.24  108.59
  -3   3   5 1709.01  109.37
  -3   3   5 1767.66  108.18
  -3   3   5 1772.06  124.49
   2  -3  -5  221.16   16.46
   2  -3  -5  220.02   18.76
   2  -3  -5  290.10   32.64
   2  -3  -5  208.64   17.69
   2  -3  -5  238.74   20.54
  -2   3   5  289.17   31.75
  -2   3   5  278.79   19.80
  -2   3   5  205.30   16.30
  -2   3   5  209.64   19.50
  -2   3   5  220.83   17.34
   1  -3  -5  990.30   63.82
   1  -3  -5 1045.69   65.27
   1  -3  -5  910.50   75.82
   1  -3  -5 1086.03   62.92
  -1   3   5 1050.19   61.54
  -1   3   5  926.81   74.38
  -1   3   5  974.67   63.54
  -1   3   5  976.49   64.84
   0  -3  -5   17.90   11.38
   0  -3  -5   17.85    5.10
   0  -3  -5   13.15    3.29
   0  -3  -5   20.13    4.70
   0  -3  -5    8.81    5.15
   0   3   5   20.08    5.71
   0   3   5   21.81    6.35
   0   3   5    9.45    3.05
   0   3   5   21.11   10.58
   0   3   5   21.71    4.73
   1   3   5 2601.34  165.62
  -2  -3  -5   29.03    4.11
  -2  -3  -5   12.55    3.86
  -2  -3  -5   18.09    3.51
  -2  -3  -5   12.44    8.17
   2   3   5   34.51    4.59
   2   3   5   19.42    4.02
   2   3   5    5.21    3.68
   2   3   5   13.04    4.68
   2   3   5   12.02    7.32
  -3  -3  -5 2459.83  158.81
   3   3   5 2538.50  156.22
  -4  -3  -5  117.59   18.47
  -4  -3  -5  101.95    8.04
   4   3   5   94.66    9.60
   4   3   5   98.03   13.25
   4   3   5   91.51   12.32
   4   3   5  100.68    7.98
   4   3   5  101.85    8.49
  -5  -3  -5  799.60   58.68
   5   3   5  747.81   49.66
   5   3   5  735.10   54.10
   5   3   5  886.70   55.66
  -6  -3  -5   63.65   14.15
   6   3   5   51.72   11.54
   6   3   5   62.66    6.86
   6   3   5   68.69    5.59
   6   3   5   67.57   12.83
   6   3   5   58.19    8.30
  -7  -3  -5 1071.39   74.22
   7   3   5 1045.07   64.42
   7   3   5 1021.27   72.12
   7   3   5 1036.84   65.26
  -8  -3  -5    7.04   10.82
  -8  -3  -5   12.42   12.19
   8   3   5   32.63    6.57
   8   3   5   32.22   11.21
   8   3   5   35.45    6.81
   8   3   5   26.31    2.54
  -9  -3  -5  373.23   35.28
  -9  -3  -5  308.20   32.75
   9   3   5  285.83   31.71
   9   3   5  312.82   24.55
   9   3   5  326.78   24.60
 -10  -3  -5   -8.65   12.65
 -10  -3  -5    1.80   12.17
  10   3   5    0.65    4.05
  10   3   5   -0.31    3.86
  10   3   5   -5.16    7.10
 -11  -3  -5  141.34   20.56
 -11  -3  -5  115.04   18.80
  11   3   5  113.84   23.62
  11   3   5  143.26   16.03
  11  -4  -5   40.95   12.55
  11  -4  -5   37.52   13.80
 -11   4   5    0.38    4.60
 -11   4   5   19.29    6.69
 -11   4   5   72.48   47.03
  10  -4  -5   65.87   46.64
  10  -4  -5  123.32   22.18
  10  -4  -5  133.63   23.44
 -10   4   5  127.73   18.87
 -10   4   5  132.23   14.39
 -10   4   5   83.11   16.80
 -10   4   5  121.13   46.12
   9  -4  -5   43.43   14.61
   9  -4  -5   60.40   14.46
  -9   4   5   57.52   12.49
  -9   4   5   79.35   34.15
  -9   4   5   49.27    9.42
  -9   4   5   63.29   13.32
  -9   4   5   47.98   10.31
   8  -4  -5  248.95   27.68
   8  -4  -5  283.55   53.32
   8  -4  -5  268.96   20.26
   8  -4  -5  255.18   26.64
  -8   4   5  264.41   26.33
  -8   4   5  281.26   22.78
  -8   4   5  290.46   26.38
  -8   4   5  227.09   20.76
  -8   4   5  210.96   47.09
   7  -4  -5   16.64   19.27
   7  -4  -5    5.68    7.07
   7  -4  -5   23.22    4.62
   7  -4  -5   15.96    7.29
  -7   4   5   14.98    6.50
  -7   4   5    8.07    4.71
  -7   4   5    7.98    7.58
  -7   4   5   37.26   23.27
  -7   4   5   12.70    8.29
   6  -4  -5  516.80   39.56
   6  -4  -5  539.49   35.65
   6  -4  -5  551.39   42.96
   6  -4  -5  455.65   60.61
   6  -4  -5  555.27   41.28
  -6   4   5  498.64   37.21
  -6   4   5  571.34   40.56
  -6   4   5  547.35   41.47
  -6   4   5  580.05   62.50
  -6   4   5  517.11   41.15
  -6   4   5  526.00   36.06
   5  -4  -5   94.63   14.13
   5  -4  -5   97.94   14.29
   5  -4  -5   76.85   15.29
   5  -4  -5   79.92    8.80
   5  -4  -5  112.35   30.27
  -5   4   5  104.18   27.91
  -5   4   5  104.94   15.16
  -5   4   5   89.42   15.33
  -5   4   5   92.08   11.17
  -5   4   5  107.07   14.11
  -5   4   5   92.49   14.72
   4  -4  -5  483.63   55.83
   4  -4  -5  522.66   37.80
   4  -4  -5  495.81   34.21
   4  -4  -5  535.05   40.17
   4  -4  -5  486.37   36.58
  -4   4   5  504.43   38.99
  -4   4   5  513.76   39.14
  -4   4   5  549.45   56.49
  -4   4   5  548.29   34.77
  -4   4   5  532.80   37.62
  -4   4   5  547.77   36.49
   3  -4  -5   87.61   12.43
   3  -4  -5   70.50    9.03
   3  -4  -5   75.97   13.20
   3  -4  -5   71.65   11.36
   3  -4  -5   65.64   22.20
  -3   4   5   83.84   11.12
  -3   4   5   80.99   13.69
  -3   4   5   89.08   14.15
  -3   4   5   83.38   11.85
  -3   4   5   82.83    9.83
  -3   4   5   81.96   22.17
   2  -4  -5  677.75   46.83
   2  -4  -5  760.93   47.10
   2  -4  -5  665.96   63.02
   2  -4  -5  746.24   49.36
   2  -4  -5  672.89   44.48
  -2   4   5  669.94   60.71
  -2   4   5  724.33   46.76
  -2   4   5  731.19   44.99
  -2   4   5  688.07   46.07
  -2   4   5  700.53   48.80
   1  -4  -5  152.69   11.66
   1  -4  -5  136.11   13.23
   1  -4  -5  130.41   12.47
   1  -4  -5  122.00   13.66
   1  -4  -5  126.61   25.33
  -1   4   5  152.01   11.79
  -1   4   5  152.90   12.86
  -1   4   5  125.57   12.51
  -1   4   5  142.98   25.60
  -1   4   5  136.37   14.62
   0  -4  -5 1300.26   99.31
   0   4   5 1403.17   87.24
   0   4   5 1449.65   99.14
  -1  -4  -5  251.08   18.64
  -1  -4  -5  267.19   20.34
  -1  -4  -5  221.16   28.63
  -1  -4  -5  259.80   19.87
  -1  -4  -5  295.59   18.76
   1   4   5  254.55   20.89
   1   4   5  261.53   20.09
   1   4   5  299.71   18.87
   1   4   5  248.85   27.74
   1   4   5  250.83   18.93
  -2  -4  -5 1542.38  104.30
   2   4   5 1482.23   93.76
   2   4   5 1566.03  102.52
  -3  -4  -5   13.54    7.81
  -3  -4  -5   22.14    4.01
   3   4   5   11.37    4.27
   3   4   5    4.28    3.48
   3   4   5   15.89    3.58
   3   4   5   10.60    7.74
   3   4   5   11.91    3.38
  -4  -4  -5  974.39   68.57
  -4  -4  -5 1013.53   59.61
   4   4   5 1004.05   65.54
   4   4   5  913.72   60.54
  -5  -4  -5   -0.37    6.19
   5   4   5    4.39    2.12
   5   4   5    2.74    4.46
   5   4   5    3.09    5.00
   5   4   5    3.71    2.15
   5   4   5    1.84    2.50
  -6  -4  -5  813.33   58.49
   6   4   5  846.47   53.61
   6   4   5  808.23   55.73
   6   4   5  902.04   52.82
   6   4   5  961.26   61.00
  -7  -4  -5   12.24    7.05
  -7  -4  -5   18.59    7.17
   7   4   5   12.27    3.53
   7   4   5   27.11    3.96
   7   4   5   22.39    4.49
   7   4   5    3.53    5.68
   8   4   5  377.68   23.68
   8   4   5  358.07   24.77
   8   4   5  382.14   25.72
   8   4   5  331.61   32.29
   9   4   5   11.81    8.02
   9   4   5   12.36    4.21
   9   4   5    7.55    3.98
   9   4   5    9.70    2.27
  10   4   5  265.91   16.73
  10   4   5  286.61   21.60
  10   4   5  286.39   21.72
  10   4   5  253.39   16.78
  10   4   5  262.78   30.13
  11   4   5   18.59    6.58
  11   4   5   22.25   12.56
  11   4   5    8.97    8.69
  11   4   5   14.37    5.72
  11  -5  -5   61.14   17.47
  11  -5  -5   77.15   17.69
 -11   5   5   29.90   39.12
 -11   5   5   55.71   10.38
  10  -5  -5   22.54   12.57
  10  -5  -5   44.30   13.27
 -10   5   5   39.15   10.35
 -10   5   5   45.45    9.38
 -10   5   5   -8.74   33.06
   9  -5  -5  133.54   22.65
   9  -5  -5  188.82   28.73
  -9   5   5  183.81   49.03
  -9   5   5  157.68   17.52
  -9   5   5  183.20   17.05
   8  -5  -5   44.27   14.42
   8  -5  -5   62.88   36.16
   8  -5  -5   67.39   14.69
  -8   5   5   66.36   14.12
  -8   5   5   79.24   11.09
  -8   5   5   41.45   31.15
  -8   5   5   50.43   10.44
   7  -5  -5  199.03   27.21
   7  -5  -5  185.54   46.83
   7  -5  -5  189.65   25.03
   7  -5  -5  206.42   16.27
  -7   5   5  194.56   17.04
  -7   5   5  189.32   22.19
  -7   5   5  236.57   47.78
  -7   5   5  189.91   18.92
   6  -5  -5   -2.40    6.80
   6  -5  -5    2.20    5.17
   6  -5  -5   -0.58    2.31
   6  -5  -5   -0.51   20.49
  -6   5   5    5.42    7.33
  -6   5   5    6.87    5.69
  -6   5   5    2.38    3.38
  -6   5   5   16.77   19.43
  -6   5   5   -2.27    5.11
   5  -5  -5  593.63   44.13
   5  -5  -5  514.58   39.51
   5  -5  -5  587.53   41.16
   5  -5  -5  463.77   60.94
   5  -5  -5  517.63   36.16
  -5   5   5  527.45   36.52
  -5   5   5  569.44   42.30
  -5   5   5  504.39   42.44
  -5   5   5  571.37   39.46
  -5   5   5  552.64   62.26
  -5   5   5  595.10   40.66
   4  -5  -5   43.94    7.20
   4  -5  -5   43.71    9.36
   4  -5  -5   57.76   10.56
   4  -5  -5   71.85   13.81
   4  -5  -5   26.11   20.93
  -4   5   5   49.77    9.45
  -4   5   5   56.25   23.48
  -4   5   5   46.36   11.87
  -4   5   5   55.48   11.34
  -4   5   5   45.38    9.42
  -4   5   5   62.91    8.47
   3  -5  -5  472.02   33.39
   3  -5  -5  428.20   35.50
   3  -5  -5  435.41   51.64
   3  -5  -5  455.86   30.57
   3  -5  -5  431.74   33.11
  -3   5   5  456.18   32.85
  -3   5   5  448.64   32.53
  -3   5   5  463.04   36.71
  -3   5   5  471.98   31.04
  -3   5   5  525.94   53.37
  -3   5   5  426.58   34.93
   2  -5  -5  291.62   20.84
   2  -5  -5  244.75   40.96
   2  -5  -5  237.13   18.00
   2  -5  -5  232.15   21.74
   2  -5  -5  252.56   20.35
  -2   5   5  199.22   19.06
  -2   5   5  238.89   19.24
  -2   5   5  245.31   18.22
  -2   5   5  255.91   22.24
  -2   5   5  273.25   41.58
   1  -5  -5 2276.88  159.10
   1  -5  -5 2344.71  141.29
  -1   5   5 2200.28  141.06
  -1   5   5 2381.93  157.56
   0  -5  -5  301.85   21.97
   0  -5  -5  233.44   37.25
   0  -5  -5  221.89   17.63
   0  -5  -5  263.53   19.18
   0  -5  -5  240.45   18.87
   0   5   5  245.61   18.23
   0   5   5  255.70   19.28
   0   5   5  233.64   30.35
   0   5   5  218.15   18.12
   0   5   5  276.95   21.80
  -1  -5  -5 2768.52  179.59
   1   5   5 2689.36  176.35
  -2  -5  -5  346.40   24.19
  -2  -5  -5  405.09   37.53
  -2  -5  -5  337.30   22.60
  -2  -5  -5  371.42   23.36
   2   5   5  319.02   25.85
   2   5   5  395.40   25.61
   2   5   5  331.62   24.00
   2   5   5  346.92   24.27
   2   5   5  385.52   34.68
  -3  -5  -5  731.25   65.36
  -3  -5  -5  974.17   56.94
   3   5   5  905.71   65.38
   3   5   5  964.34   58.49
   3   5   5  943.59   56.74
   3   5   5  925.35   58.02
  -4  -5  -5   -3.38    6.70
   4   5   5    3.30    3.35
   4   5   5    4.83    5.96
   4   5   5    0.94    2.10
   4   5   5    3.81    2.39
   4   5   5    4.06    3.28
  -5  -5  -5  752.71   50.24
   5   5   5  704.64   44.78
   5   5   5  662.22   43.13
   5   5   5  766.82   50.73
   5   5   5  689.15   46.06
   5   5   5  687.67   44.34
   6   5   5   13.11    3.64
   6   5   5   16.20    3.98
   6   5   5   28.93    9.40
   6   5   5   17.55    3.40
   7   5   5  307.47   28.02
   7   5   5  283.35   19.65
   7   5   5  308.90   21.13
   7   5   5  323.72   21.02
   8   5   5    1.17    2.43
   8   5   5    1.46    2.19
   8   5   5    2.57    2.19
   8   5   5   10.25    7.44
   9   5   5  334.99   23.77
   9   5   5  359.66   23.31
   9   5   5  340.49   23.23
   9   5   5  326.48   32.42
  10   5   5   10.44    8.11
  10   5   5    6.98    3.91
  10   5   5   16.00    3.41
  10   5   5   10.94    4.21
  10   5   5   10.76    9.74
  11   5   5  226.25   26.17
  11   5   5  167.23   15.65
  11   5   5  198.34   26.96
  11   5   5  188.72   16.75
  10  -6  -5  150.94   27.11
  10  -6  -5  188.98   26.91
 -10   6   5  172.33   16.91
 -10   6   5  177.04   19.74
 -10   6   5   86.74   48.51
   9  -6  -5   16.65    9.74
   9  -6  -5   15.29   11.03
  -9   6   5    7.85    4.95
  -9   6   5   18.97   29.44
  -9   6   5   10.53    6.92
   8  -6  -5  266.35   26.48
   8  -6  -5  294.46   60.82
   8  -6  -5  238.14   32.31
  -8   6   5  261.48   23.50
  -8   6   5  205.19   19.66
  -8   6   5  233.83   56.69
   7  -6  -5   78.57   39.98
   7  -6  -5   62.61   15.71
   7  -6  -5   82.04   15.46
  -7   6   5   73.06   10.72
  -7   6   5   58.33   12.82
  -7   6   5   87.42   33.48
   6  -6  -5  568.90   46.25
   6  -6  -5  599.02   43.69
   6  -6  -5  522.02   37.80
   6  -6  -5  613.45   73.76
  -6   6   5  604.17   71.31
  -6   6   5  554.64   38.40
  -6   6   5  494.74   45.13
  -6   6   5  634.89   42.34
   5  -6  -5    6.35   20.98
   5  -6  -5   40.66    7.16
   5  -6  -5   34.70    9.31
   5  -6  -5   33.10   11.36
  -5   6   5   39.86   11.82
  -5   6   5   12.64   19.31
  -5   6   5   35.53    9.40
  -5   6   5   34.97    7.02
   4  -6  -5  792.93   50.88
   4  -6  -5  851.94   77.95
   4  -6  -5  684.39   46.87
   4  -6  -5  752.17   54.42
   4  -6  -5  673.46   50.19
  -4   6   5  770.21   50.59
  -4   6   5  881.79   77.86
  -4   6   5  715.33   49.46
  -4   6   5  692.42   52.49
  -4   6   5  676.82   54.34
  -4   6   5  683.85   47.04
   3  -6  -5   22.98   20.10
   3  -6  -5   25.91    7.25
   3  -6  -5   21.77    8.80
   3  -6  -5   17.17    4.75
   3  -6  -5   16.86    6.70
  -3   6   5   24.42    8.80
  -3   6   5   14.61    6.20
  -3   6   5    9.09    6.79
  -3   6   5   21.70    5.83
  -3   6   5   55.45   22.75
  -3   6   5   22.24    5.62
   2  -6  -5  383.73   26.80
   2  -6  -5  358.85   45.78
   2  -6  -5  361.90   28.83
   2  -6  -5  448.35   32.73
   2  -6  -5  402.11   28.29
  -2   6   5  423.03   34.35
  -2   6   5  326.87   30.44
  -2   6   5  382.07   26.85
  -2   6   5  365.45   28.55
  -2   6   5  381.44   27.38
  -2   6   5  353.25   46.08
   1  -6  -5   15.80    4.05
   1  -6  -5   18.34    5.82
   1  -6  -5   13.62    5.02
   1  -6  -5    2.46   13.68
   1  -6  -5   12.87    6.67
  -1   6   5    9.67    3.70
  -1   6   5    8.91    5.46
  -1   6   5  -12.30   11.56
  -1   6   5    9.80    3.61
  -1   6   5    8.56    4.21
   0  -6  -5  936.90   55.81
   0  -6  -5  849.39   55.45
   0  -6  -5  976.71   59.15
   0  -6  -5  824.31   56.12
   0   6   5  852.14   58.95
   0   6   5  754.46   70.69
   0   6   5  917.85   55.87
   0   6   5  915.12   55.13
   0   6   5  861.13   56.79
  -1  -6  -5    6.20    3.39
  -1  -6  -5   -1.25    3.37
  -1  -6  -5    3.64    2.54
  -1  -6  -5   -9.51    9.26
   1   6   5   10.61   11.23
   1   6   5    2.81    4.04
   1   6   5    3.35    2.59
   1   6   5   -0.37    2.22
   1   6   5    3.17    3.25
  -2  -6  -5 1330.38   95.47
  -2  -6  -5 1232.78   79.28
   2   6   5 1381.00   93.72
   2   6   5 1288.04   81.71
   2   6   5 1279.42   79.04
  -3  -6  -5   30.39    5.63
  -3  -6  -5   25.29   11.39
   3   6   5   33.86   11.41
   3   6   5   15.43    4.44
   3   6   5   25.67    5.49
   3   6   5   19.87    4.76
   3   6   5   14.35    5.27
  -4  -6  -5  539.54   44.60
   4   6   5  518.34   36.57
   4   6   5  644.41   36.75
   4   6   5  514.97   36.55
   4   6   5  525.99   35.07
   4   6   5  548.05   42.33
   5   6   5  131.63   10.44
   5   6   5  135.33   12.60
   5   6   5  147.93   12.22
   5   6   5  106.89   11.05
   6   6   5  465.76   31.28
   6   6   5  589.48   40.97
   6   6   5  529.50   33.70
   6   6   5  468.87   32.68
   7   6   5   46.85    5.00
   7   6   5   77.10   15.17
   7   6   5   58.61    6.41
   7   6   5   55.30    7.97
   8   6   5  299.76   21.86
   8   6   5  370.08   32.53
   8   6   5  388.63   23.57
   8   6   5  368.58   24.79
   9   6   5   -2.44    3.97
   9   6   5    0.44    6.56
   9   6   5    2.60    1.98
   9   6   5    2.00    2.69
   9   6   5    2.11    2.64
  10   6   5  163.21   21.53
  10   6   5  160.76   12.40
  10   6   5  163.08   12.94
  10   6   5  162.26   23.37
  10   6   5  151.33   13.10
  10  -7  -5   37.06   14.98
  10  -7  -5   16.05    9.96
 -10   7   5    3.56   36.51
 -10   7   5   25.08   50.19
 -10   7   5   25.73    7.40
 -10   7   5   22.90    8.00
   9  -7  -5  107.91   20.46
   9  -7  -5  120.08   22.96
  -9   7   5   94.14   13.26
  -9   7   5   98.60   16.47
  -9   7   5  108.83   51.15
  -9   7   5   16.74   35.52
   8  -7  -5   13.37   11.17
   8  -7  -5   15.46    8.04
  -8   7   5   -2.38   28.37
  -8   7   5    8.59    5.13
  -8   7   5   15.12    8.43
   7  -7  -5  271.07   26.99
   7  -7  -5  262.58   65.09
   7  -7  -5  289.50   31.18
  -7   7   5  268.63   22.27
  -7   7   5  296.36   26.44
  -7   7   5  213.06   54.19
   6  -7  -5  131.05   43.34
   6  -7  -5  175.81   22.10
   6  -7  -5  195.03   28.27
  -6   7   5  153.72   20.98
  -6   7   5  148.60   42.48
  -6   7   5  158.47   15.15
   5  -7  -5  392.12   64.80
   5  -7  -5  366.19   29.77
   5  -7  -5  382.40   34.73
  -5   7   5  368.29   30.33
  -5   7   5  334.44   26.54
  -5   7   5  320.22   59.89
   4  -7  -5   -3.40   23.25
   4  -7  -5    0.90    7.17
   4  -7  -5   13.81    4.33
   4  -7  -5    8.86    5.55
  -4   7   5   13.38   22.81
  -4   7   5   17.65    5.57
  -4   7   5   17.54    7.02
   3  -7  -5  772.38   56.97
   3  -7  -5  763.02   53.82
   3  -7  -5  879.24   61.03
   3  -7  -5  928.51   56.61
   3  -7  -5  904.48   85.92
  -3   7   5  791.04   81.86
  -3   7   5  773.30   62.36
  -3   7   5  912.11   54.95
  -3   7   5  865.20   57.71
   2  -7  -5  104.49   15.09
   2  -7  -5  125.24   18.82
   2  -7  -5   93.89   12.44
   2  -7  -5  106.23   10.67
   2  -7  -5   91.83   29.54
  -2   7   5   83.17   12.95
  -2   7   5  130.51   21.54
  -2   7   5  135.61   30.78
  -2   7   5  110.94   16.96
  -2   7   5  100.77   12.50
  -2   7   5   95.62   10.31
   1  -7  -5  677.83   45.14
   1  -7  -5  698.57   69.45
   1  -7  -5  744.58   47.33
   1  -7  -5  644.99   44.59
   1  -7  -5  659.95   48.98
  -1   7   5  735.21   69.29
  -1   7   5  781.21   44.53
  -1   7   5  682.30   47.24
  -1   7   5  655.05   49.36
  -1   7   5  643.62   52.53
  -1   7   5  642.31   44.79
   0  -7  -5  101.65   10.12
   0  -7  -5   95.95   11.04
   0  -7  -5  102.41    9.43
   0  -7  -5  121.06   15.27
   0   7   5  106.45   15.90
   0   7   5  108.21   13.90
   0   7   5   98.02    8.73
   0   7   5   90.96   25.94
   0   7   5   78.96   10.48
  -1  -7  -5  550.50   56.33
  -1  -7  -5  473.54   37.67
  -1  -7  -5  612.33   39.39
  -1  -7  -5  623.76   40.33
   1   7   5  558.88   41.96
   1   7   5  649.87   58.46
   1   7   5  656.44   40.86
   1   7   5  571.02   36.74
   1   7   5  636.23   39.60
  -2  -7  -5   34.09    4.31
  -2  -7  -5   29.54    6.19
  -2  -7  -5   44.40   17.96
   2   7   5   31.09   15.13
   2   7   5   28.55    6.61
   2   7   5   31.97    5.15
   2   7   5   32.07    7.81
   2   7   5   35.89    6.73
  -3  -7  -5  898.55   69.11
   3   7   5  778.06   53.07
   3   7   5  937.46   67.11
   3   7   5  834.13   52.01
   3   7   5  806.03   54.90
   3   7   5  801.04   53.07
   4   7   5   10.16    7.35
   4   7   5    2.31    3.19
   4   7   5    6.96    3.60
   4   7   5    1.54    3.64
   4   7   5   13.35    9.76
   4   7   5    2.67    3.14
   5   7   5  380.25   26.68
   5   7   5  346.68   26.13
   5   7   5  390.21   26.64
   5   7   5  329.75   24.51
   5   7   5  362.58   27.42
   5   7   5  377.64   26.43
   6   7   5   24.79    5.91
   6   7   5   19.24    4.21
   6   7   5   19.85    5.14
   7   7   5  513.13   37.99
   7   7   5  392.32   29.33
   7   7   5  398.70   26.57
   7   7   5  408.95   27.94
   8   7   5   13.86    2.75
   8   7   5   13.54    4.83
   8   7   5    5.26    5.50
   8   7   5   17.32    8.74
   8   7   5   18.45    4.00
   9   7   5  147.81   23.00
   9   7   5  144.32   11.22
   9   7   5  132.54   19.12
   9   7   5  147.07   13.53
  10   7   5   13.45    2.85
  10   7   5   13.14    3.42
  10   7   5   19.80    4.94
  10   7   5    8.15    7.72
  10   7   5    9.66    8.46
   9  -8  -5   29.95   11.46
   9  -8  -5   45.07   15.42
  -9   8   5   57.82   14.28
  -9   8   5   98.39   57.67
  -9   8   5   46.24    9.01
  -9   8   5   -0.18   31.07
   8  -8  -5  136.19   25.55
   8  -8  -5  135.83   21.20
  -8   8   5  157.52   46.66
  -8   8   5  180.83   24.81
  -8   8   5  147.49   15.37
  -8   8   5  135.96   61.09
   7  -8  -5   32.24   13.35
   7  -8  -5   28.84   10.12
  -7   8   5   18.80    6.42
  -7   8   5   40.75   11.01
  -7   8   5   79.26   36.26
   6  -8  -5  315.98   28.00
   6  -8  -5  324.58   32.63
  -6   8   5  288.52   27.83
  -6   8   5  270.19   23.88
  -6   8   5  369.70   65.68
   5  -8  -5   24.98   36.00
   5  -8  -5   48.93   14.68
   5  -8  -5   37.55    9.63
  -5   8   5   40.39   10.66
  -5   8   5   23.49   24.35
  -5   8   5   43.18    8.50
   4  -8  -5  370.46   29.05
   4  -8  -5  301.31   58.67
   4  -8  -5  388.91   34.93
  -4   8   5  316.76   59.97
  -4   8   5  353.30   26.79
  -4   8   5  346.82   30.39
   3  -8  -5   39.24    8.54
   3  -8  -5   23.11   10.77
   3  -8  -5   57.17   28.64
   3  -8  -5   21.48    8.64
  -3   8   5   31.01    9.33
  -3   8   5   35.38    7.78
  -3   8   5   73.27   30.14
   2  -8  -5  636.39   72.57
   2  -8  -5  658.38   42.45
   2  -8  -5  642.82   48.24
   2  -8  -5  583.42   44.25
  -2   8   5  644.64   70.30
  -2   8   5  612.14   42.26
  -2   8   5  595.28   44.94
   1  -8  -5    9.03    5.38
   1  -8  -5    9.16    3.86
   1  -8  -5   10.38    7.02
   1  -8  -5   -8.06   18.16
  -1   8   5    6.11    6.04
  -1   8   5   12.41    6.41
  -1   8   5   15.82   19.78
  -1   8   5    3.55    3.78
   0  -8  -5  382.90   27.75
   0  -8  -5  252.31   57.83
   0  -8  -5  313.28   23.99
   0   8   5  305.94   23.71
   0   8   5  284.05   46.29
   0   8   5  291.45   26.77
   0   8   5  276.01   24.77
  -1  -8  -5   -1.14   16.47
  -1  -8  -5   12.50    4.52
  -1  -8  -5    8.24    5.19
   1   8   5    9.28    4.65
   1   8   5    0.16    3.85
   1   8   5    7.30    4.93
   1   8   5   -2.66   14.10
   2   8   5  853.21   72.25
   2   8   5  795.12   54.55
   2   8   5  836.92   48.76
   2   8   5  841.38   54.24
   2   8   5  816.21   56.80
   3   8   5   20.59   15.38
   3   8   5   48.49    9.73
   3   8   5   29.58    4.01
   3   8   5   27.29   11.65
   3   8   5   24.01    6.22
   3   8   5   32.75    7.26
   4   8   5  584.63   51.23
   4   8   5  619.26   42.61
   4   8   5  622.29   43.60
   4   8   5  661.26   48.44
   4   8   5  649.41   39.96
   4   8   5  620.57   41.89
   5   8   5    1.94    3.05
   5   8   5    1.86    2.76
   5   8   5   15.36    5.14
   5   8   5   -2.19    7.55
   5   8   5    2.92    3.83
   5   8   5    4.23    3.48
   5   8   5   -7.08    5.31
   6   8   5  509.06   35.06
   6   8   5  513.11   34.91
   6   8   5  495.27   35.43
   6   8   5  466.24   33.03
   6   8   5  542.99   35.26
   7   8   5    6.09    3.97
   7   8   5   13.22    4.88
   7   8   5   12.53    3.57
   7   8   5    4.45    4.13
   8   8   5  188.08   15.35
   8   8   5  206.40   19.92
   8   8   5  200.12   14.20
   8   8   5  202.77   17.71
   8   8   5  229.46   25.12
   9   8   5   10.66    3.27
   9   8   5    7.26    2.19
   9   8   5    5.15    4.15
   9   8   5    5.38    7.96
   9   8   5   -2.40    4.36
   8  -9  -5   33.25   11.20
   8  -9  -5   32.00   13.51
  -8   9   5   29.78   11.11
  -8   9   5   -6.28   56.78
  -8   9   5   43.55    9.22
  -8   9   5   68.08   41.79
   7  -9  -5  154.86   26.52
   7  -9  -5  152.82   22.04
  -7   9   5  230.36   58.61
  -7   9   5  180.32   48.57
  -7   9   5  147.00   16.15
  -7   9   5  176.97   25.14
   6  -9  -5   21.83   12.82
   6  -9  -5   51.59   11.53
  -6   9   5   35.30   10.62
  -6   9   5   -5.97   29.66
  -6   9   5   11.03   29.14
  -6   9   5   23.23    7.11
   5  -9  -5  469.41   40.93
   5  -9  -5  349.20   32.09
  -5   9   5  427.45   63.50
  -5   9   5  425.86   31.58
  -5   9   5  373.62   69.49
  -5   9   5  423.51   35.71
   4  -9  -5   75.02   12.05
   4  -9  -5   73.76   17.58
  -4   9   5   69.48   14.78
  -4   9   5   89.31   39.52
  -4   9   5   58.91   10.56
  -4   9   5   83.09   34.11
   3  -9  -5  251.52   28.04
   3  -9  -5  277.98   22.42
  -3   9   5  227.16   24.45
  -3   9   5  221.83   52.86
  -3   9   5  288.39   46.52
  -3   9   5  280.71   22.68
   2  -9  -5   37.34   12.23
   2  -9  -5   52.60   11.26
   2  -9  -5   51.43    8.36
  -2   9   5   51.32   21.66
  -2   9   5   33.62   23.07
  -2   9   5   45.18   11.61
  -2   9   5   43.70    9.03
   1  -9  -5  337.83   29.55
   1  -9  -5  270.61   24.74
  -1   9   5  360.26   44.43
  -1   9   5  278.95   26.35
  -1   9   5  333.47   55.89
  -1   9   5  311.34   24.57
   0  -9  -5   52.46    9.45
   0  -9  -5   40.54   10.81
   0   9   5   37.02    9.77
   0   9   5   44.95   23.15
   0   9   5   48.29   20.15
   0   9   5   34.70    8.12
  -1  -9  -5  441.96   30.94
  -1  -9  -5  486.78   33.23
   1   9   5  419.22   32.46
   1   9   5  466.76   47.90
   1   9   5  504.43   57.43
   1   9   5  407.54   33.60
   2   9   5   56.68   10.56
   2   9   5   39.73   10.04
   2   9   5   23.12    6.69
   2   9   5   65.56   24.42
   3   9   5  348.60   28.13
   3   9   5  379.34   28.72
   3   9   5  351.66   29.90
   3   9   5  428.54   46.74
   4   9   5   36.46    8.91
   4   9   5    8.90   16.38
   4   9   5   33.97    8.00
   4   9   5   13.17   10.20
   4   9   5   15.88    5.56
   5   9   5  330.03   22.04
   5   9   5  355.49   26.01
   5   9   5  342.51   28.98
   5   9   5  356.35   22.42
   5   9   5  299.37   31.76
   5   9   5  382.50   27.73
   5   9   5  343.70   27.46
   6   9   5    5.60    3.76
   6   9   5    2.06    2.58
   6   9   5    3.19    4.00
   6   9   5   -1.19    2.61
   6   9   5    4.45    4.83
   7   9   5  145.22   13.49
   7   9   5  183.65   17.14
   7   9   5  147.20   14.69
   7   9   5  177.23   15.61
   7   9   5  194.33   15.73
   8   9   5   15.05    5.09
   8   9   5    5.47    3.17
   8   9   5    5.84    4.90
   8   9   5    5.67    8.73
   8   9   5    7.77    5.08
   8   9   5    2.25    4.36
   7 -10  -5   52.84   18.21
   7 -10  -5   23.18    9.56
  -7  10   5   21.21   55.56
  -7  10   5   47.93   12.99
  -7  10   5   27.56    8.08
  -7  10   5   24.01   45.84
   6 -10  -5  141.34   26.84
   6 -10  -5  128.19   19.03
  -6  10   5  128.82   16.78
  -6  10   5  193.95   54.97
  -6  10   5  127.18   65.62
  -6  10   5  110.48   19.68
   5 -10  -5   14.67   12.46
   5 -10  -5   18.84    7.61
  -5  10   5   26.80    9.34
  -5  10   5   20.20   46.91
  -5  10   5   35.60    8.61
  -5  10   5   59.69   39.91
   4 -10  -5  303.86   25.15
   4 -10  -5  297.67   32.63
  -4  10   5  256.17   62.44
  -4  10   5  306.25   54.92
  -4  10   5  301.88   29.12
  -4  10   5  289.32   25.07
   3 -10  -5   17.04   11.55
   3 -10  -5   38.17    7.74
  -3  10   5   15.03   23.10
  -3  10   5   23.83    9.51
  -3  10   5   24.99    7.59
  -3  10   5   26.71   35.06
   2 -10  -5  375.28   26.51
   2 -10  -5  346.92   34.61
  -2  10   5  384.28   30.15
  -2  10   5  386.56   33.05
  -2  10   5  420.87   56.12
  -2  10   5  472.27   74.18
   1 -10  -5   53.29   12.85
   1 -10  -5   64.08   12.20
  -1  10   5   29.83   33.50
  -1  10   5   55.68   12.75
  -1  10   5   30.83    8.44
   0 -10  -5  429.78   33.47
   0 -10  -5  372.31   29.77
   0  10   5  415.75   33.30
   0  10   5  328.12   59.23
   0  10   5  382.29   30.42
  -1 -10  -5   34.43    7.01
   1  10   5   -3.59   25.81
   1  10   5    7.75   17.21
   1  10   5   35.11    8.32
   1  10   5   46.15   10.95
   2  10   5  182.46   18.41
   2  10   5  178.28   40.36
   2  10   5  165.51   17.28
   3  10   5   11.01   14.24
   3  10   5   28.69    7.83
   3  10   5   36.21   25.25
   3  10   5   17.87    6.75
   4  10   5  348.49   27.69
   4  10   5  334.00   27.23
   4  10   5  382.41   45.14
   4  10   5  307.08   35.43
   5  10   5   20.54    7.28
   5  10   5   28.91   16.68
   5  10   5   29.00    7.35
   5  10   5   22.95    7.22
   5  10   5   22.25   11.33
   6  10   5  185.19   17.64
   6  10   5  140.71   18.27
   6  10   5  159.16   15.45
   7  10   5    5.45    4.98
   7  10   5   10.05    5.87
   7  10   5    3.10    2.11
   7  10   5   10.30    3.22
   7  10   5    4.46    4.06
  -6  11   5   25.07   61.60
   5 -11  -5   88.73   14.67
   5 -11  -5  108.70   22.88
  -5  11   5  114.71   16.40
  -5  11   5  117.67   43.98
  -5  11   5   90.09   18.60
  -5  11   5  120.18   60.74
   4 -11  -5   45.12   15.34
   4 -11  -5   31.86    7.87
  -4  11   5   39.30    9.42
  -4  11   5   10.40   33.58
  -4  11   5   50.48   13.72
  -4  11   5   26.10   50.40
   3 -11  -5  206.90   30.12
  -3  11   5  208.85   20.39
  -3  11   5  211.60   23.55
  -3  11   5  183.55   45.89
  -3  11   5  308.02   73.30
   2 -11  -5    1.21    7.37
  -2  11   5   -4.76   38.96
  -2  11   5   16.38   29.01
  -2  11   5   20.13    9.70
  -2  11   5   20.29    7.18
   1 -11  -5  264.12   22.93
   1 -11  -5  267.93   26.33
  -1  11   5  195.21   20.98
  -1  11   5  235.89   45.48
  -1  11   5  206.50   24.14
  -1  11   5  309.20   62.87
   0 -11  -5   24.91    9.40
   0 -11  -5   28.11    7.26
   0  11   5   50.78   35.40
   0  11   5   20.76    8.83
   0  11   5   30.41    8.20
   0  11   5   33.11   23.25
  -1 -11  -5  230.33   18.72
   1  11   5  233.22   23.46
   1  11   5  206.37   20.80
   1  11   5  183.08   40.15
   1  11   5  205.72   49.55
   2  11   5   40.18   31.48
   2  11   5   60.58   24.27
   2  11   5   44.11   10.91
   2  11   5   58.04   11.64
   3  11   5  218.44   22.05
   3  11   5  209.49   45.07
   3  11   5  241.75   36.97
   3  11   5  226.52   21.70
   4  11   5   33.56    8.67
   4  11   5   48.29   19.85
   4  11   5   14.26   26.27
   4  11   5   43.44    9.91
   5  11   5  151.49   22.66
   5  11   5  177.98   31.67
   5  11   5  158.12   16.87
   5  11   5  141.88   18.75
   6  11   5   16.89    6.11
   6  11   5   16.47    6.60
   3 -12  -5   11.03   12.38
  -3  12   5   24.40    7.87
  -3  12   5  -15.00   38.83
  -3  12   5   -6.66   44.17
  -3  12   5   30.37   10.64
   2 -12  -5  194.78   28.41
  -2  12   5  195.82   49.08
  -2  12   5  146.09   63.08
  -2  12   5  141.76   23.28
  -2  12   5  189.20   19.55
   1 -12  -5   24.26    9.23
  -1  12   5   22.78    8.01
  -1  12   5   15.08   33.12
  -1  12   5    4.08   44.81
  -1  12   5   29.84   10.78
   0  12   5  165.75   57.19
   0  12   5  206.55   20.58
   0  12   5  204.37   27.63
   0  12   5  145.80   45.50
  -1 -12  -5    2.00    2.28
   1  12   5   -2.82   42.44
   1  12   5    6.76    6.19
   1  12   5    4.54    5.98
   2  12   5  155.06   20.63
   2  12   5  228.52   56.85
   2  12   5  158.13   22.64
   3  12   5   -1.34    4.42
   3  12   5    4.44    5.36
   3  12   5   27.56   37.66
   4   8  -6   95.53   18.95
   3   8  -6    5.09    7.80
  -3  -8   6   -1.13    2.71
  -3  -8   6    3.88    4.81
  -3  -8   6    6.31    6.30
   2   8  -6   94.88   38.61
   2   8  -6   90.81   19.68
  -2  -8   6   33.75   11.78
  -2  -8   6   91.37   16.46
  -2  -8   6   92.25   36.90
   1   8  -6   11.17    9.33
   1   8  -6    2.83   31.99
  -1  -8   6    9.09    6.20
  -1  -8   6   17.36   11.17
  -1  -8   6   33.41   32.13
   0   8  -6   87.10   41.50
   0   8  -6  104.59   21.00
   0  -8   6  109.86   21.16
   0  -8   6   98.86   39.21
   0  -8   6   90.98   15.09
   0  -8   6  100.56   24.91
  -1   8  -6    0.07    6.90
  -1   8  -6   18.27   30.42
   1  -8   6   20.68    7.90
   1  -8   6  -63.70   35.07
   1  -8   6   27.33   14.65
   1  -8   6   16.40   12.41
  -2   8  -6  109.78   22.59
  -2   8  -6   98.99   42.98
  -2   8  -6   99.13   15.31
   2  -8   6   93.52   24.49
   2  -8   6  106.51   22.21
   2  -8   6   57.40   41.53
  -3   8  -6    6.55    6.93
  -3   8  -6   11.93    6.58
  -3   8  -6   24.57   34.98
   3  -8   6    5.59   36.73
   3  -8   6   12.75   10.55
   3  -8   6   23.67   15.75
  -4   8  -6   87.61   13.71
  -4   8  -6   48.81   51.16
  -4   8  -6   87.44   20.70
   4  -8   6  142.24   26.27
   4  -8   6  143.93   31.24
   4  -8   6  100.24   42.84
   6   7  -6   40.28   12.59
   6   7  -6   36.12    6.14
   6   7  -6   73.71   13.59
   5   7  -6  143.93   18.84
   5   7  -6  143.31   23.40
   5   7  -6  132.38   14.29
  -5  -7   6   91.86   37.39
   4   7  -6   18.95   30.92
   4   7  -6    6.25    7.78
   4   7  -6   31.47    8.40
   4   7  -6   33.61    9.08
  -4  -7   6    0.62    2.80
  -4  -7   6   13.41    5.38
  -4  -7   6   14.58   24.53
  -4  -7   6   26.50    8.37
   3   7  -6  170.83   18.84
   3   7  -6  140.18   41.72
   3   7  -6  181.45   26.40
  -3  -7   6  148.69   39.23
  -3  -7   6  152.76   20.71
  -3  -7   6  174.44   18.23
   2   7  -6    9.82    8.80
   2   7  -6   33.03   23.11
  -2  -7   6   -0.52    4.20
  -2  -7   6    3.82    7.41
  -2  -7   6    4.08   24.02
  -2  -7   6   -4.71    6.38
   1   7  -6  192.20   27.62
   1   7  -6  151.00   39.84
  -1  -7   6  142.37   20.36
  -1  -7   6  231.56   33.55
  -1  -7   6  179.74   40.90
  -1  -7   6  196.31   21.86
   0   7  -6   -0.56    6.84
   0  -7   6    4.91    6.48
   0  -7   6    5.26   23.51
   0  -7   6   12.46   11.03
   0  -7   6    9.04    8.56
  -1   7  -6  130.35   22.81
   1  -7   6  119.74   23.04
   1  -7   6   90.81   31.89
   1  -7   6  104.88   24.95
   1  -7   6  157.83   19.75
  -2   7  -6   33.39   29.88
  -2   7  -6    8.73    9.30
   2  -7   6   -0.97    7.94
   2  -7   6    7.88   28.47
   2  -7   6    8.80   11.98
  -3   7  -6  104.67   21.50
  -3   7  -6  182.20   46.09
  -3   7  -6  180.18   16.96
   3  -7   6  196.26   28.56
   3  -7   6  144.25   31.40
   3  -7   6  127.98   40.98
  -4   7  -6   10.70    8.10
  -4   7  -6    6.55    5.10
  -4   7  -6    3.30   32.68
   4  -7   6   -3.36    9.46
   4  -7   6   33.63   36.01
   4  -7   6   10.86   10.86
  -5   7  -6  159.71   26.83
  -5   7  -6  170.86   16.47
  -5   7  -6  232.04   51.35
   5  -7   6  167.87   51.22
   5  -7   6  163.49   29.11
   5  -7   6  115.37   29.28
  -6   7  -6    6.70    4.80
  -6   7  -6    5.66    9.86
  -6   7  -6   -9.57   37.96
   6  -7   6    9.08   10.69
   6  -7   6    0.97    9.53
   7   6  -6   31.43    9.91
   7   6  -6    5.20    8.29
   6   6  -6  197.38   26.37
   6   6  -6  186.12   24.44
   6   6  -6  192.73   12.44
   6   6  -6  138.71   40.70
  -6  -6   6  172.34   35.67
   5   6  -6   37.39   10.45
   5   6  -6   42.57    7.37
   5   6  -6    2.91   26.90
   5   6  -6   55.15   13.95
  -5  -6   6   37.55   22.69
   4   6  -6  206.37   19.81
   4   6  -6  245.58   46.97
   4   6  -6  238.14   22.53
   4   6  -6  275.16   26.87
  -4  -6   6  218.36   20.48
  -4  -6   6  186.07   36.99
  -4  -6   6  233.09   22.05
   3   6  -6   30.24   10.90
   3   6  -6    9.46    6.95
   3   6  -6   30.86   24.48
   3   6  -6   20.93    7.69
  -3  -6   6   24.50   21.60
  -3  -6   6   22.30    7.37
  -3  -6   6   32.06    9.82
  -3  -6   6   24.56    8.60
   2   6  -6  225.16   24.75
   2   6  -6  232.27   22.18
  -2  -6   6  205.32   20.74
  -2  -6   6  200.44   22.02
  -2  -6   6  183.74   21.82
  -2  -6   6  197.17   39.82
  -2  -6   6  246.92   26.55
   1   6  -6   -2.27   20.74
   1   6  -6   -1.21    5.44
   1   6  -6    1.56    5.69
  -1  -6   6   -0.21    7.43
  -1  -6   6    7.92   19.46
  -1  -6   6    6.52    6.07
  -1  -6   6    8.11    8.01
  -1  -6   6   -8.40    4.53
   0   6  -6  440.24   37.19
   0   6  -6  407.81   52.86
   0  -6   6  372.21   38.62
   0  -6   6  399.69   32.12
   0  -6   6  352.56   34.70
   0  -6   6  410.54   53.78
  -1   6  -6    4.57    7.82
  -1   6  -6   13.18   21.68
   1  -6   6    0.26    7.49
   1  -6   6    1.79    6.96
   1  -6   6    3.10    5.29
   1  -6   6  -10.93   19.69
  -2   6  -6  270.74   28.35
  -2   6  -6  244.86   46.04
   2  -6   6  269.43   23.57
   2  -6   6  237.93   44.14
   2  -6   6  221.44   35.47
   2  -6   6  248.32   27.80
  -3   6  -6    3.88   19.95
  -3   6  -6   -2.45    4.41
   3  -6   6    2.38   19.87
   3  -6   6    4.02    9.72
   3  -6   6    7.63    8.72
  -4   6  -6   95.23   32.56
  -4   6  -6   91.99   12.45
  -4   6  -6   97.64   20.07
   4  -6   6  102.43   31.89
   4  -6   6   80.12   22.00
   4  -6   6  140.53   24.38
  -5   6  -6   14.56    9.91
  -5   6  -6   37.18   29.67
  -5   6  -6    6.33    4.42
   5  -6   6   -5.28    9.62
   5  -6   6   14.23   10.79
   5  -6   6   12.36   28.23
  -6   6  -6  215.97   16.87
  -6   6  -6  216.44   48.18
  -6   6  -6  213.51   30.69
   6  -6   6  124.13   45.95
   6  -6   6  122.13   30.21
   6  -6   6  186.41   29.86
  -7   6  -6    9.21    3.78
  -7   6  -6   13.39   10.02
  -7   6  -6  -10.24   27.55
   7  -6   6   -2.84   11.27
   7  -6   6   14.85   10.35
   8   5  -6   20.28   10.50
   8   5  -6   23.64   10.87
   7   5  -6  184.74   23.59
   7   5  -6  190.53   45.09
   7   5  -6  136.17   21.57
  -7  -5   6  111.51   29.08
   6   5  -6   12.81    7.85
   6   5  -6    6.20    7.37
   6   5  -6   -2.84   23.52
  -6  -5   6   -9.86   16.78
   5   5  -6  221.97   15.75
   5   5  -6  199.67   22.73
   5   5  -6  198.54   40.97
   5   5  -6  154.13   22.28
  -5  -5   6  204.78   35.47
  -5  -5   6  198.42   21.44
   4   5  -6   45.14    8.47
   4   5  -6   45.48   10.89
   4   5  -6   50.29   12.64
  -4  -5   6   38.60    9.14
  -4  -5   6   55.99   21.56
  -4  -5   6   54.53   11.85
  -4  -5   6   30.95    8.45
   3   5  -6  265.88   22.26
   3   5  -6  269.40   26.31
   3   5  -6  226.03   22.35
   3   5  -6  257.34   43.77
  -3  -5   6  239.16   23.05
  -3  -5   6  246.91   23.65
  -3  -5   6  251.76   23.61
  -3  -5   6  256.37   40.07
   2   5  -6  162.12   16.28
   2   5  -6  103.21   15.44
   2   5  -6   98.76   28.66
   2   5  -6  131.15   20.39
  -2  -5   6  131.65   17.74
  -2  -5   6   67.30   14.78
  -2  -5   6  130.40   20.79
  -2  -5   6  158.64   31.34
  -2  -5   6  119.96   17.86
   1   5  -6  686.80   65.43
   1   5  -6  590.10   45.55
   1   5  -6  615.99   47.79
  -1  -5   6  609.46   46.65
  -1  -5   6  576.80   44.02
  -1  -5   6  565.78   59.54
  -1  -5   6  618.10   46.31
  -1  -5   6  624.57   50.10
   0   5  -6  107.61   27.84
   0   5  -6  138.54   20.90
   0   5  -6  129.12   16.78
   0  -5   6  130.45   17.16
   0  -5   6   85.53   19.29
   0  -5   6  139.72   19.82
   0  -5   6  122.83   19.51
   0  -5   6  131.71   28.65
  -1   5  -6  743.13   54.95
  -1   5  -6  712.57   67.47
   1  -5   6  663.39   57.47
   1  -5   6  751.48   51.01
   1  -5   6  728.10   68.28
   1  -5   6  696.44   53.97
  -2   5  -6   40.68   23.77
  -2   5  -6   18.51    9.43
   2  -5   6    7.21    6.40
   2  -5   6   16.84   18.33
   2  -5   6   10.42   11.50
   2  -5   6   13.71    9.09
  -3   5  -6  366.83   44.26
  -3   5  -6  382.01   32.91
   3  -5   6  325.51   51.29
   3  -5   6  286.02   30.66
   3  -5   6  329.03   27.45
   3  -5   6  260.66   33.98
  -4   5  -6   31.49   18.42
  -4   5  -6   44.28   12.88
   4  -5   6   26.59   25.05
   4  -5   6   15.49   11.60
   4  -5   6   40.13   12.54
  -5   5  -6  246.39   19.13
  -5   5  -6  336.92   51.48
  -5   5  -6  244.52   26.79
   5  -5   6  216.43   30.31
   5  -5   6  236.07   38.10
   5  -5   6  175.30   38.27
  -6   5  -6   23.37   10.31
  -6   5  -6    3.28   25.51
  -6   5  -6   19.19    4.91
   6  -5   6   18.03   14.49
   6  -5   6   29.94   26.46
   6  -5   6   25.93   11.55
  -7   5  -6  183.44   26.31
  -7   5  -6  170.82   13.71
   7  -5   6  164.92   27.83
   7  -5   6  128.56   43.63
   7  -5   6  165.36   33.86
  -8   5  -6    0.47    1.22
  -8   5  -6   -9.54   33.58
  -8   5  -6   -1.79    6.97
  -8   5  -6    0.27    0.88
  -8   5  -6   12.54   57.91
   8  -5   6   12.43    9.71
   8  -5   6    7.66   13.13
   9   4  -6   25.71   11.35
   9   4  -6   37.03   12.36
   8   4  -6   93.47   17.64
   8   4  -6   85.09   16.97
   8   4  -6  119.30   37.93
  -8  -4   6   97.91   26.77
   7   4  -6   48.09   27.05
   7   4  -6   22.83    9.12
   7   4  -6   27.12   10.96
  -7  -4   6   14.58   16.50
   6   4  -6  250.98   24.76
   6   4  -6  239.81   25.17
  -6  -4   6  211.52   34.39
   5   4  -6   36.44   10.87
   5   4  -6   45.20   27.57
   5   4  -6   52.32   12.10
  -5  -4   6   33.83    9.24
  -5  -4   6   50.70   19.24
   4   4  -6  323.64   51.89
   4   4  -6  458.30   36.32
   4   4  -6  416.01   33.93
   4   4  -6  462.59   29.35
  -4  -4   6  370.50   31.61
  -4  -4   6  443.37   32.20
  -4  -4   6  421.41   33.96
  -4  -4   6  396.06   44.84
   3   4  -6   60.10   13.66
   3   4  -6   83.45   10.24
   3   4  -6   83.26   26.01
   3   4  -6   73.79   13.40
  -3  -4   6   76.05   13.17
  -3  -4   6   66.90   11.87
  -3  -4   6   85.15   23.19
  -3  -4   6   61.76   11.88
  -3  -4   6   75.09   13.55
   2   4  -6  538.18   38.46
   2   4  -6  515.53   40.52
   2   4  -6  521.79   54.95
   2   4  -6  543.62   37.43
  -2  -4   6  431.10   38.21
  -2  -4   6  462.42   37.68
  -2  -4   6  493.56   38.17
  -2  -4   6  522.19   51.68
  -2  -4   6  501.67   40.12
   1   4  -6   38.29   18.82
   1   4  -6   40.97    9.80
   1   4  -6   64.66   11.59
   1   4  -6   52.66   12.87
  -1  -4   6   46.88   10.24
  -1  -4   6   63.74   14.44
  -1  -4   6   56.67   12.05
  -1  -4   6   18.43   17.14
  -1  -4   6   53.65   11.43
   0   4  -6  353.71   30.70
   0   4  -6  344.69   29.33
   0   4  -6  331.21   41.15
   0  -4   6  293.38   27.06
   0  -4   6  308.40   31.92
   0  -4   6  322.62   28.97
   0  -4   6  326.70   29.24
   0  -4   6  461.65   44.53
  -1   4  -6   61.19   18.78
  -1   4  -6   32.92   11.09
  -1   4  -6   41.49   11.49
   1  -4   6   28.38   17.84
   1  -4   6   36.54   13.13
   1  -4   6   39.31   10.45
   1  -4   6   35.68   10.71
   1  -4   6   44.73    9.91
  -2   4  -6  538.11   41.33
  -2   4  -6  449.28   40.43
  -2   4  -6  619.70   57.41
   2  -4   6  472.81   43.92
   2  -4   6  535.12   54.94
   2  -4   6  519.92   38.22
   2  -4   6  502.10   40.97
  -3   4  -6   63.50   22.69
  -3   4  -6   61.13   13.68
   3  -4   6   61.29   17.77
   3  -4   6   58.93   11.10
   3  -4   6   30.27   19.68
   3  -4   6   44.16   11.71
  -4   4  -6  843.13   73.93
  -4   4  -6  872.27   57.94
   4  -4   6  700.28   56.13
   4  -4   6  775.62   73.56
   4  -4   6  637.64   59.46
  -5   4  -6   15.56    4.42
  -5   4  -6   15.49    9.02
  -5   4  -6   23.58   22.18
   5  -4   6    4.71   10.77
   5  -4   6   25.38    9.05
   5  -4   6   18.84   19.11
  -6   4  -6  405.68   34.65
  -6   4  -6  387.41   25.30
  -6   4  -6  397.70   52.88
   6  -4   6  380.37   49.30
   6  -4   6  270.79   36.54
   6  -4   6  369.47   35.54
  -7   4  -6   40.60   23.12
  -7   4  -6    9.41    2.85
  -7   4  -6   12.48    3.29
  -7   4  -6   -4.19    4.91
   7  -4   6   21.18   25.85
   7  -4   6    0.33   10.96
   7  -4   6   -0.45    6.61
  -8   4  -6  204.11   26.28
   8  -4   6  167.72   26.94
   8  -4   6  174.67   34.13
  -9   4  -6   -4.08    5.78
  -9   4  -6   21.11   28.64
  -9   4  -6   25.22   44.95
   9  -4   6   -4.77   10.70
   9  -4   6    6.16    9.95
  10   3  -6   28.51   12.12
  10   3  -6   22.68   10.15
   9   3  -6   51.37   34.79
   9   3  -6   45.89   13.29
   9   3  -6   39.67   12.47
  -9  -3   6   63.60   24.85
   8   3  -6    9.44    7.91
   8   3  -6   15.18    9.34
   8   3  -6   11.87   25.48
  -8  -3   6    2.04   17.32
   7   3  -6  268.02   26.13
   7   3  -6  257.38   25.84
  -7  -3   6  204.71   34.78
   6   3  -6  137.88   20.03
   6   3  -6  140.44   20.25
  -6  -3   6   81.32   22.97
  -6  -3   6  115.97   10.73
  -6  -3   6  116.42   10.73
   5   3  -6  531.71   39.24
   5   3  -6  490.15   39.24
   5   3  -6  433.26   52.86
  -5  -3   6  527.61   50.18
  -5  -3   6  435.02   34.21
  -5  -3   6  513.92   38.55
   4   3  -6   88.69   15.48
   4   3  -6   95.10    8.06
   4   3  -6   50.72   22.37
   4   3  -6   95.26   15.58
  -4  -3   6   64.50   12.58
  -4  -3   6  102.76   13.36
  -4  -3   6   85.93   14.32
  -4  -3   6   66.88   20.11
   3   3  -6  366.19   29.76
   3   3  -6  461.40   29.44
   3   3  -6  376.09   33.71
   3   3  -6  434.92   47.79
   3   3  -6  429.87   33.45
  -3  -3   6  401.37   32.57
  -3  -3   6  474.32   45.13
  -3  -3   6  461.88   32.52
  -3  -3   6  415.47   31.61
  -3  -3   6  375.91   32.25
   2   3  -6  123.66   12.69
   2   3  -6  144.85   17.99
   2   3  -6  110.24   12.84
   2   3  -6  158.74   17.43
   2   3  -6  148.90   28.84
  -2  -3   6  121.47   15.49
  -2  -3   6  136.99   17.70
  -2  -3   6  150.61   18.94
  -2  -3   6  129.76   25.06
  -2  -3   6  154.22   19.94
   1   3  -6  670.53   61.78
   1   3  -6  704.89   46.05
   1   3  -6  620.21   44.25
   1   3  -6  669.61   48.25
   1   3  -6  669.79   46.53
  -1  -3   6  640.48   48.47
  -1  -3   6  670.89   58.90
  -1  -3   6  674.07   46.76
  -1  -3   6  554.56   46.31
  -1  -3   6  680.87   46.95
   0   3  -6   80.48   21.82
   0   3  -6   67.41   10.94
   0   3  -6   71.38   12.52
   0   3  -6   91.04   15.50
   0  -3   6  107.09   15.89
   0  -3   6   44.26   18.09
   0  -3   6   79.63   15.78
   0  -3   6   70.51   12.13
   0  -3   6   55.77   11.91
  -1   3  -6  597.87   43.65
  -1   3  -6  573.77   42.57
  -1   3  -6  557.87   39.49
  -1   3  -6  547.92   54.54
   1  -3   6  572.09   45.46
   1  -3   6  507.95   40.17
   1  -3   6  547.73   41.85
   1  -3   6  602.32   42.45
   1  -3   6  565.58   53.85
  -2   3  -6  104.15   17.06
  -2   3  -6   93.03   24.11
  -2   3  -6  108.12   14.65
  -2   3  -6  137.72   19.44
   2  -3   6  129.05   21.94
   2  -3   6  105.45   16.87
   2  -3   6   99.84   15.01
   2  -3   6   82.77   14.53
   2  -3   6  120.46   25.67
  -3   3  -6  569.27   54.02
  -3   3  -6  506.88   42.25
  -3   3  -6  488.84   38.06
  -3   3  -6  675.17   44.05
   3  -3   6  513.05   39.36
   3  -3   6  520.44   41.60
   3  -3   6  611.17   45.20
   3  -3   6  498.71   51.75
   3  -3   6  518.74   46.17
  -4   3  -6   80.67   12.54
  -4   3  -6   60.12   22.63
  -4   3  -6   54.31   12.79
   4  -3   6   62.85   22.68
   4  -3   6   58.03   13.70
   4  -3   6   83.95   13.14
   4  -3   6   91.22   20.51
  -5   3  -6  409.16   35.37
  -5   3  -6  463.01   50.96
   5  -3   6  408.32   36.33
   5  -3   6  499.25   52.58
   5  -3   6  383.18   40.90
  -6   3  -6   12.47    2.98
  -6   3  -6   15.63   21.44
  -6   3  -6   14.22    8.43
  -6   3  -6   11.10    3.18
   6  -3   6   12.48   10.88
   6  -3   6    9.07    8.19
   6  -3   6   12.84   18.93
  -7   3  -6  294.83   19.26
  -7   3  -6  293.42   28.17
  -7   3  -6  277.49   46.29
  -7   3  -6  317.92   19.77
   7  -3   6  300.09   30.67
   7  -3   6  286.40   36.47
   7  -3   6  348.69   51.26
  -8   3  -6   40.10   10.41
  -8   3  -6   19.26   23.19
   8  -3   6   28.95   15.53
   8  -3   6   24.12   10.34
  -9   3  -6  207.23   20.80
  -9   3  -6  175.58   60.59
   9  -3   6  193.52   36.41
   9  -3   6  143.53   25.59
 -10   3  -6   -1.35    6.08
 -10   3  -6   16.22   32.61
 -10   3  -6   19.98   55.65
  10  -3   6    8.34   11.39
  10  -3   6   -2.32    8.22
  10   2  -6   92.55   19.07
  10   2  -6   92.34   17.90
   9   2  -6   22.93   29.30
   9   2  -6   18.27   10.46
   9   2  -6   33.16   12.26
  -9  -2   6   38.45   21.95
   8   2  -6  228.63   24.65
   8   2  -6  225.58   28.74
  -8  -2   6  203.54   35.41
   7   2  -6   70.44   15.20
   7   2  -6   79.15   15.67
  -7  -2   6   76.93    7.10
  -7  -2   6   53.18   22.72
   6   2  -6  338.72   24.11
   6   2  -6  306.12   28.15
   6   2  -6  286.28   27.41
   6   2  -6  341.43   46.28
  -6  -2   6  279.99   22.98
  -6  -2   6  317.16   38.98
  -6  -2   6  289.59   22.45
   5   2  -6   29.21    9.62
   5   2  -6   18.90   16.72
   5   2  -6   29.75    9.53
   5   2  -6   27.97    6.43
  -5  -2   6   16.47    6.09
  -5  -2   6   24.49    7.45
  -5  -2   6   21.84    6.78
  -5  -2   6   -7.25   12.36
   4   2  -6  649.42   47.46
   4   2  -6  654.99   43.20
   4   2  -6  573.14   60.77
   4   2  -6  607.81   46.29
   4   2  -6  656.38   43.70
  -4  -2   6  579.19   44.47
  -4  -2   6  686.05   46.87
  -4  -2   6  657.92   57.31
  -4  -2   6  684.01   44.00
   3   2  -6    6.79    6.54
   3   2  -6   15.50    6.99
   3   2  -6   25.68    4.83
   3   2  -6   19.29   13.34
   3   2  -6   17.75    5.47
  -3  -2   6   14.86   11.03
  -3  -2   6   22.23    6.75
  -3  -2   6   10.78    6.78
  -3  -2   6   12.61    5.94
  -3  -2   6   23.35    6.06
   2   2  -6  781.01   51.66
   2   2  -6  895.70   56.66
   2   2  -6  861.65   55.07
   2   2  -6  745.85   68.61
   2   2  -6  828.99   51.04
  -2  -2   6  742.23   54.55
  -2  -2   6  790.82   52.98
  -2  -2   6  772.57   64.52
  -2  -2   6  764.84   53.24
  -2  -2   6  718.32   53.86
   1   2  -6   15.50   12.25
   1   2  -6   27.32    6.82
   1   2  -6   39.87    9.10
   1   2  -6   21.25    6.06
   1   2  -6   34.79    9.56
  -1  -2   6   21.66    8.48
  -1  -2   6   37.90   14.02
  -1  -2   6   16.37    7.10
  -1  -2   6   28.11    7.91
  -1  -2   6   33.76    9.23
   0   2  -6  675.74   42.85
   0   2  -6  580.02   55.34
   0   2  -6  572.57   43.57
   0   2  -6  591.54   40.35
   0   2  -6  616.88   42.73
   0  -2   6  683.46   54.27
   0  -2   6  550.06   41.96
   0  -2   6  530.92   42.80
   0  -2   6  571.28   42.00
   0  -2   6  585.84   44.36
  -1   2  -6   26.59    7.80
  -1   2  -6   25.53    7.94
  -1   2  -6   22.91    5.71
  -1   2  -6    3.56   12.16
   1  -2   6   12.31    6.96
   1  -2   6   19.40    9.27
   1  -2   6   21.95    7.54
   1  -2   6   17.31    6.96
   1  -2   6   19.23   10.83
  -2   2  -6  838.07   58.20
  -2   2  -6  865.22   58.42
  -2   2  -6  872.60   69.96
  -2   2  -6  876.92   55.21
   2  -2   6  865.48   57.58
   2  -2   6  829.84   57.69
   2  -2   6  757.64   67.50
   2  -2   6  794.40   60.75
   2  -2   6  827.57   56.48
  -3   2  -6   16.52    7.55
  -3   2  -6   16.74    7.51
  -3   2  -6   12.60   13.54
  -3   2  -6   26.23    6.39
   3  -2   6   20.74    6.14
   3  -2   6   22.84    7.59
   3  -2   6   23.31   10.45
   3  -2   6   23.66    7.58
   3  -2   6   20.55   11.93
  -4   2  -6  953.87   61.48
  -4   2  -6  863.16   54.26
  -4   2  -6  861.46   62.64
  -4   2  -6  870.43   57.68
  -4   2  -6  973.85   75.61
   4  -2   6  795.22   65.15
   4  -2   6  919.09   61.28
   4  -2   6  881.35   73.28
   4  -2   6  826.17   59.22
   4  -2   6  886.72   60.39
  -5   2  -6   75.55   14.13
  -5   2  -6   41.24   19.59
  -5   2  -6   75.28    7.20
  -5   2  -6   90.37   12.63
   5  -2   6   95.83   23.16
   5  -2   6   50.80   16.68
   5  -2   6   75.12   14.43
  -6   2  -6  427.42   25.45
  -6   2  -6  399.85   30.53
  -6   2  -6  451.98   33.66
  -6   2  -6  382.81   46.06
  -6   2  -6  428.23   25.72
   6  -2   6  345.72   33.42
   6  -2   6  343.30   44.73
   6  -2   6  358.97   38.66
  -7   2  -6   40.09    9.79
  -7   2  -6   37.98    8.00
  -7   2  -6   21.63   19.51
   7  -2   6   16.63   13.29
   7  -2   6   13.89   16.87
   7  -2   6   33.21   10.85
  -8   2  -6  363.19   27.91
  -8   2  -6  378.87   30.21
  -8   2  -6  311.81   48.63
   8  -2   6  281.45   37.77
   8  -2   6  321.09   50.19
   8  -2   6  429.46   35.37
  -9   2  -6   21.52    7.08
  -9   2  -6   17.81   37.70
   9  -2   6   16.93    9.88
   9  -2   6   10.69   12.49
 -10   2  -6  181.13   17.10
 -10   2  -6  140.37   54.17
  10  -2   6  118.63   29.41
  10  -2   6  184.52   26.97
  11   1  -6   88.98   18.85
  11   1  -6  104.09   21.48
  10   1  -6   41.79   13.73
  10   1  -6   23.20   33.80
  10   1  -6   34.52   12.22
 -10  -1   6   -4.64   21.93
   9   1  -6  326.02   56.86
   9   1  -6  325.96   29.72
   9   1  -6  235.23   31.97
  -9  -1   6  266.35   45.14
   8   1  -6   41.40   12.96
   8   1  -6   54.74   13.69
  -8  -1   6   51.50   23.00
  -8  -1   6   58.98    5.48
   7   1  -6  313.62   27.88
   7   1  -6  262.55   26.90
   7   1  -6  249.55   44.93
  -7  -1   6  278.60   20.77
  -7  -1   6  279.33   21.56
  -7  -1   6  268.52   41.15
   6   1  -6   10.56   17.15
   6   1  -6    7.85    5.03
   6   1  -6   12.99    8.08
   6   1  -6   15.73    7.23
  -6  -1   6    9.56   14.80
  -6  -1   6    9.30    4.84
  -6  -1   6    4.69    5.15
   5   1  -6  249.33   42.05
   5   1  -6  291.59   26.72
   5   1  -6  288.40   22.83
   5   1  -6  310.66   23.10
   5   1  -6  287.79   26.15
  -5  -1   6  308.53   37.68
  -5  -1   6  302.75   22.74
  -5  -1   6  319.84   26.38
  -5  -1   6  284.71   24.03
   4   1  -6  105.57   10.51
   4   1  -6   74.78   13.61
   4   1  -6  118.62   16.91
   4   1  -6   73.72   23.26
   4   1  -6  103.56   10.70
  -4  -1   6  109.94   15.44
  -4  -1   6   81.84    6.56
  -4  -1   6   79.38   13.73
  -4  -1   6   90.82   21.69
  -4  -1   6   78.64   11.40
   3   1  -6 1125.61   71.03
   3   1  -6 1261.83   75.26
   3   1  -6 1214.77   75.71
   3   1  -6 1091.41   88.69
   3   1  -6 1115.95   70.94
  -3  -1   6 1020.66   69.70
  -3  -1   6 1147.11   71.49
  -3  -1   6 1101.61   85.37
  -3  -1   6 1072.37   73.92
  -3  -1   6 1216.88   74.74
   2   1  -6    3.57    5.28
   2   1  -6    2.27    4.73
   2   1  -6   14.19    4.07
   2   1  -6  -18.52    9.98
   2   1  -6   11.58    3.96
  -2  -1   6    3.46    4.12
  -2  -1   6    7.94    4.80
  -2  -1   6    4.17    4.81
  -2  -1   6   12.43    8.75
  -2  -1   6    0.19    4.37
   1   1  -6  533.97   33.97
   1   1  -6  496.05   36.22
   1   1  -6  468.97   48.65
   1   1  -6  502.10   36.97
   1   1  -6  510.95   33.25
  -1  -1   6  508.62   34.66
  -1  -1   6  465.08   35.32
  -1  -1   6  421.65   35.83
  -1  -1   6  458.60   43.92
  -1  -1   6  483.94   36.22
   0   1  -6    6.40    4.28
   0   1  -6    3.30    4.31
   0   1  -6   -2.83    3.99
   0   1  -6   -1.41    8.00
   0   1  -6   19.13    4.61
   0   1  -6   13.58    5.02
   0  -1   6   29.98    8.72
   0  -1   6    4.29    8.94
   0  -1   6    2.86    3.98
   0  -1   6    7.14    5.57
   0  -1   6    8.33    5.09
  -1   1  -6  863.74   51.89
  -1   1  -6  836.25   55.33
  -1   1  -6  759.31   52.81
  -1   1  -6  914.00   57.19
  -1   1  -6  832.67   68.17
   1  -1   6  811.20   55.18
   1  -1   6  755.05   56.76
   1  -1   6  821.55   56.12
   1  -1   6  841.77   54.62
   1  -1   6  809.90   64.78
  -2   1  -6    6.85    5.05
  -2   1  -6    4.83    3.25
  -2   1  -6    6.86    9.62
   2  -1   6   18.07    7.77
   2  -1   6    0.61    3.72
   2  -1   6   10.17    4.06
   2  -1   6   11.47    5.30
   2  -1   6   -2.68    7.31
  -3   1  -6  954.47   59.85
  -3   1  -6  808.39   59.61
  -3   1  -6  927.98   54.10
  -3   1  -6  978.06   72.64
  -3   1  -6  858.62   56.30
   3  -1   6  852.80   58.21
   3  -1   6  859.98   58.82
   3  -1   6  896.44   69.66
   3  -1   6  886.64   58.57
   3  -1   6  754.16   61.47
  -4   1  -6   26.11   12.68
  -4   1  -6   54.33   10.57
  -4   1  -6   53.00    5.48
  -4   1  -6   44.91    8.51
   4  -1   6   44.35    9.85
   4  -1   6   35.22    8.99
   4  -1   6   49.61   10.21
   4  -1   6   41.25   14.49
  -5   1  -6  440.18   30.72
  -5   1  -6  424.01   35.14
  -5   1  -6  440.42   26.62
  -5   1  -6  399.57   44.00
  -5   1  -6  423.94   32.75
   5  -1   6  358.83   37.28
   5  -1   6  414.42   32.69
   5  -1   6  441.67   44.38
   5  -1   6  412.97   33.10
  -6   1  -6  137.24   17.45
  -6   1  -6  111.30   24.56
  -6   1  -6  117.18   12.50
  -6   1  -6  112.44    7.52
  -6   1  -6  114.49    7.48
   6  -1   6  120.06   25.78
   6  -1   6   89.02   20.57
   6  -1   6  143.67   19.53
  -7   1  -6  257.23   21.53
   7  -1   6  235.36   38.32
   7  -1   6  209.40   32.72
   7  -1   6  212.08   22.56
  -8   1  -6   55.61   10.43
  -8   1  -6   49.88   22.25
   8  -1   6   73.46   24.78
   8  -1   6   68.53   14.60
   8  -1   6   52.03   17.61
  -9   1  -6  312.99   46.73
  -9   1  -6  311.81   23.08
  -9   1  -6  252.67   59.83
   9  -1   6  304.12   29.30
   9  -1   6  227.55   32.24
 -10   1  -6  -16.72   32.08
 -10   1  -6    8.13   23.31
 -10   1  -6    0.95    1.65
 -10   1  -6    0.57    3.41
  10  -1   6   16.43   14.34
  10  -1   6    8.72    8.93
 -11   1  -6  -19.25   29.68
  11  -1   6   80.53   22.74
  11  -1   6   75.31   17.60
  11   0  -6   40.42   13.19
  11   0  -6   35.43   12.25
  10   0  -6  155.77   23.53
  10   0  -6  157.00   44.99
  10   0  -6  112.61   21.76
 -10   0   6  141.13   36.40
   9   0  -6   96.14   18.59
   9   0  -6   87.54   18.29
   9   0  -6   85.76   35.41
  -9   0   6   70.66    6.87
  -9   0   6   65.21   27.88
   8   0  -6  260.98   27.04
   8   0  -6  297.65   28.10
  -8   0   6  254.62   19.92
  -8   0   6  311.00   48.29
   7   0  -6   -0.33   17.68
   7   0  -6    0.91    5.89
   7   0  -6   -6.80    4.22
  -7   0   6    1.92    4.12
  -7   0   6   -5.59   16.23
  -7   0   6   -5.22    3.24
   6   0  -6  107.62   18.35
   6   0  -6  169.93   14.26
   6   0  -6  179.69   15.14
   6   0  -6  150.43   20.87
   6   0  -6  135.23   32.82
  -6   0   6  141.04   15.48
  -6   0   6  129.25   28.69
  -6   0   6  143.05   13.68
   5   0  -6   -5.53   12.21
   5   0  -6   -3.76    2.91
   5   0  -6   -2.04    4.89
   5   0  -6    2.71    3.37
   5   0  -6    1.94    3.39
  -5   0   6   -1.11    3.18
  -5   0   6    3.22   10.94
  -5   0   6    0.84    4.57
  -5   0   6    0.56    3.96
   4   0  -6  751.04   45.14
   4   0  -6  582.12   59.98
   4   0  -6  599.57   47.59
   4   0  -6  652.83   47.94
   4   0  -6  665.20   44.34
  -4   0   6  600.65   46.98
  -4   0   6  615.07   46.70
  -4   0   6  769.36   41.45
  -4   0   6  739.19   44.69
  -4   0   6  557.13   57.12
   3   0  -6  693.98   47.94
   3   0  -6  694.47   47.56
   3   0  -6  631.28   60.12
   3   0  -6  694.33   43.91
   3   0  -6  644.04   43.76
  -3   0   6  643.32   46.81
  -3   0   6  644.41   43.74
  -3   0   6  716.44   47.21
  -3   0   6  634.07   57.75
   2   0  -6 1456.95   91.69
   2   0  -6 1436.39   92.30
   2   0  -6 1456.63  106.64
   2   0  -6 1515.94   88.51
   2   0  -6 1425.03   88.59
  -2   0   6 1372.41   91.73
  -2   0   6 1459.08   91.71
  -2   0   6 1395.03  102.61
   1   0  -6  212.20   28.69
   1   0  -6  215.40   16.83
   1   0  -6  206.96   19.12
   1   0  -6  206.92   16.20
   1   0  -6  195.49   19.35
  -1   0   6  226.77   17.97
  -1   0   6  213.65   17.17
  -1   0   6  171.73   18.32
  -1   0   6  208.05   25.99
  -1   0   6  187.61   18.69
   0   0  -6 2487.38  156.02
   0   0   6 2189.20  140.55
   0   0   6 2223.10  150.20
  -1   0  -6  195.40   31.07
  -1   0  -6  242.61   19.14
  -1   0  -6  213.63   15.84
  -1   0  -6  215.70   19.68
  -1   0  -6  220.05   19.52
  -1   0  -6  205.30   16.72
   1   0   6  187.73   24.21
   1   0   6  198.32   18.80
   1   0   6  236.37   17.92
   1   0   6  206.00   19.92
   1   0   6  201.00   19.20
  -2   0  -6 1106.09   74.46
  -2   0  -6 1235.41   70.50
  -2   0  -6 1165.64   86.69
  -2   0  -6 1307.90   75.88
   2   0   6 1041.32   74.11
   2   0   6 1177.88   73.09
   2   0   6 1166.98   76.68
   2   0   6 1046.37   73.65
   2   0   6 1139.10   83.18
  -3   0  -6   58.76    9.55
  -3   0  -6   75.90   18.47
   3   0   6   44.62    9.24
   3   0   6   39.83    8.16
  -4   0  -6 1151.80   84.96
  -4   0  -6 1172.41   74.87
  -4   0  -6 1150.59   71.85
   4   0   6 1030.17   76.14
   4   0   6 1010.67   80.65
   4   0   6 1103.35   72.31
   4   0   6 1165.58   71.68
  -5   0  -6   24.29    6.88
  -5   0  -6   24.33    3.08
  -5   0  -6   23.41    7.25
   5   0   6   27.69   11.65
   5   0   6   12.11    6.06
   5   0   6   25.16   12.34
   5   0   6   33.58    8.37
  -6   0  -6  885.47   69.51
  -6   0  -6  876.18   54.23
  -6   0  -6  812.70   52.29
   6   0   6  861.87   56.24
   6   0   6  731.57   60.89
   6   0   6  841.83   56.05
   6   0   6  725.44   65.25
  -7   0  -6    3.78    3.98
  -7   0  -6   30.42   15.56
  -7   0  -6    2.94    3.27
   7   0   6   15.38    7.46
   7   0   6   -5.19    7.93
   7   0   6    5.10   13.55
   7   0   6    2.53    3.93
  -8   0  -6  401.43   44.10
   8   0   6  328.03   37.36
   8   0   6  394.43   31.80
   8   0   6  355.92   43.46
  -9   0  -6   39.21   19.90
  -9   0  -6   21.49   29.62
  -9   0  -6   28.70    3.99
   9   0   6   23.69    8.94
   9   0   6   35.21   15.95
 -10   0  -6  205.52   38.67
 -10   0  -6  145.52   41.87
  10   0   6  184.90   32.56
  10   0   6  217.27   23.31
 -11   0  -6  -11.74   24.89
  11   0   6    9.33   13.66
  11   0   6   10.77    8.92
  11  -1  -6   95.01   19.89
  11  -1  -6   89.29   19.84
  10  -1  -6   62.63   38.19
  10  -1  -6   57.24   15.88
  10  -1  -6   36.91   11.78
 -10   1   6   23.98    4.72
 -10   1   6   49.40   29.59
   9  -1  -6  133.97   41.82
   9  -1  -6  144.92   23.12
   9  -1  -6  150.30   23.63
  -9   1   6  158.37   14.02
  -9   1   6  163.21   16.19
  -9   1   6  142.40   36.23
   8  -1  -6   78.83   16.31
   8  -1  -6   36.78   26.68
   8  -1  -6   85.74   16.85
  -8   1   6   77.61   13.08
  -8   1   6  102.27   28.30
  -8   1   6   79.76   10.77
   7  -1  -6  222.41   23.92
   7  -1  -6  257.34   24.94
   7  -1  -6  160.89   39.39
   7  -1  -6  244.26   20.79
  -7   1   6  205.71   18.45
  -7   1   6  250.32   21.82
  -7   1   6  245.06   41.78
   6  -1  -6   -3.98    5.11
   6  -1  -6    6.14    4.14
   6  -1  -6    6.11    4.91
   6  -1  -6   -5.44    4.27
   6  -1  -6   -3.22   15.86
  -6   1   6    3.60    4.13
  -6   1   6    9.90    6.13
  -6   1   6    2.43    1.99
  -6   1   6   -1.79   12.91
   5  -1  -6  546.19   38.39
   5  -1  -6  527.84   57.18
   5  -1  -6  556.77   42.20
   5  -1  -6  577.60   37.84
   5  -1  -6  546.40   42.25
  -5   1   6  487.91   40.73
  -5   1   6  580.76   55.57
  -5   1   6  622.62   41.57
  -5   1   6  560.22   35.67
   4  -1  -6   30.49    8.37
   4  -1  -6   30.68    9.61
   4  -1  -6   23.69   15.27
   4  -1  -6   19.64    5.10
   4  -1  -6   17.80    5.32
  -4   1   6   22.88    7.65
  -4   1   6   27.90   16.03
  -4   1   6   20.24    7.32
   3  -1  -6 1224.30   93.90
   3  -1  -6 1219.04   75.03
   3  -1  -6 1169.68   74.22
   3  -1  -6 1266.95   78.39
   3  -1  -6 1198.22   78.56
  -3   1   6 1134.28   77.64
  -3   1   6 1205.65   77.70
  -3   1   6 1248.94   91.97
  -3   1   6 1174.93   74.59
   2  -1  -6   51.63   16.69
   2  -1  -6   72.92    9.90
   2  -1  -6  100.42    9.06
   2  -1  -6  103.67   14.69
   2  -1  -6   74.49   11.54
  -2   1   6   70.00   11.53
  -2   1   6   40.59   14.91
  -2   1   6   68.97    9.40
  -2   1   6   65.85   12.33
   1  -1  -6  778.36   47.61
   1  -1  -6  691.76   49.72
   1  -1  -6  674.65   50.04
   1  -1  -6  706.96   62.48
   1  -1  -6  776.70   46.76
  -1   1   6  812.14   47.15
  -1   1   6  653.27   58.79
  -1   1   6  785.15   47.89
  -1   1   6  688.13   49.57
  -1   1   6  693.75   50.11
   0  -1  -6  312.49   35.79
   0  -1  -6  365.38   28.05
   0  -1  -6  367.92   24.15
   0  -1  -6  333.71   27.06
   0  -1  -6  364.74   25.04
   0   1   6  412.80   37.66
   0   1   6  344.23   24.06
   0   1   6  296.27   26.53
   0   1   6  371.23   26.50
   0   1   6  361.88   25.22
   0   1   6  340.54   27.76
  -1  -1  -6  633.45   54.92
  -1  -1  -6  672.51   39.52
  -1  -1  -6  660.55   40.69
  -1  -1  -6  625.56   43.16
  -1  -1  -6  607.80   43.00
   1   1   6  607.15   40.66
   1   1   6  649.97   39.54
   1   1   6  572.71   42.33
   1   1   6  549.97   42.49
   1   1   6  563.09   50.53
   1   1   6  652.96   43.31
  -2  -1  -6  249.29   20.16
  -2  -1  -6  219.13   17.51
  -2  -1  -6  219.44   16.21
  -2  -1  -6  242.48   20.65
  -2  -1  -6  241.95   29.38
   2   1   6  199.96   20.40
   2   1   6  243.18   18.46
   2   1   6  235.93   16.54
   2   1   6  252.67   20.35
   2   1   6  222.37   25.84
   2   1   6  264.59   20.42
  -3  -1  -6 1322.61   84.17
  -3  -1  -6 1458.71   87.12
  -3  -1  -6 1331.33   96.76
   3   1   6 1349.37   85.07
   3   1   6 1353.01   87.56
   3   1   6 1291.93   84.91
   3   1   6 1302.02   92.43
  -4  -1  -6   27.08   15.04
  -4  -1  -6   19.84    4.68
  -4  -1  -6   23.63    3.38
  -4  -1  -6   16.86    6.52
  -4  -1  -6   17.52    5.70
   4   1   6    9.87    5.03
   4   1   6   21.06    8.36
   4   1   6   38.20   11.82
   4   1   6   18.96    5.60
  -5  -1  -6 1197.31   72.95
  -5  -1  -6 1160.73   74.21
  -5  -1  -6 1210.95   88.59
  -5  -1  -6 1216.93   79.83
   5   1   6 1219.34   76.60
   5   1   6 1236.96   85.79
   5   1   6 1086.67   80.72
   5   1   6 1244.26   75.56
  -6  -1  -6    4.89    3.35
  -6  -1  -6    9.38    3.53
  -6  -1  -6   -1.75    4.16
  -6  -1  -6  -12.62   10.31
   6   1   6    7.39    4.67
   6   1   6    6.84    7.90
   6   1   6    2.06    9.33
   6   1   6   -0.25    3.59
  -7  -1  -6  465.48   28.40
  -7  -1  -6  449.62   27.83
  -7  -1  -6  430.25   44.92
   7   1   6  435.65   33.08
   7   1   6  408.27   32.61
   7   1   6  442.76   42.34
   7   1   6  412.24   39.22
  -8  -1  -6    3.40   14.19
   8   1   6    1.38    3.56
   8   1   6   14.95   12.97
   8   1   6   -1.85    4.48
   8   1   6    3.84    8.38
  -9  -1  -6  287.73   39.23
  -9  -1  -6  276.65   48.09
   9   1   6  275.74   25.08
   9   1   6  237.17   31.03
 -10  -1  -6   -0.31   20.47
 -10  -1  -6   -5.06   25.07
  10   1   6   15.93    7.67
  10   1   6   -1.02    9.55
 -11  -1  -6  143.90   35.58
  11   1   6  162.75   21.47
  11   1   6  125.18   27.45
  11  -2  -6   40.48   13.26
  11  -2  -6   65.03   17.01
  10  -2  -6  185.53   27.53
  10  -2  -6  138.63   23.88
  10  -2  -6   81.35   42.59
 -10   2   6  154.73   42.00
   9  -2  -6   41.93   32.59
   9  -2  -6   34.50   11.13
   9  -2  -6   21.71   10.17
  -9   2   6   25.67    5.15
  -9   2   6   41.79   10.22
  -9   2   6  -31.74   22.36
   8  -2  -6  199.55   45.25
   8  -2  -6  191.88   25.83
   8  -2  -6  213.42   23.82
  -8   2   6  187.18   16.42
  -8   2   6  216.63   20.88
  -8   2   6  205.69   40.75
   7  -2  -6  177.44   39.44
   7  -2  -6  142.11   13.63
   7  -2  -6  168.19   23.09
   7  -2  -6  159.14   21.94
  -7   2   6  136.81   14.16
  -7   2   6  141.31   14.12
  -7   2   6  167.23   21.16
  -7   2   6  161.58   34.41
   6  -2  -6  536.53   37.47
   6  -2  -6  500.00   35.30
   6  -2  -6  556.14   41.92
   6  -2  -6  505.86   40.64
   6  -2  -6  496.04   58.51
  -6   2   6  589.99   37.09
  -6   2   6  448.00   35.46
  -6   2   6  462.51   38.70
  -6   2   6  609.65   58.87
  -6   2   6  554.52   35.96
   5  -2  -6  190.48   36.59
   5  -2  -6  154.09   20.63
   5  -2  -6  136.23   13.86
   5  -2  -6  157.17   16.68
   5  -2  -6  129.95   12.38
  -5   2   6  124.05   13.29
  -5   2   6  122.00   12.98
  -5   2   6  144.30   18.98
  -5   2   6  142.01   13.25
  -5   2   6  155.99   19.93
  -5   2   6  157.59   31.83
   4  -2  -6 1152.69   72.63
   4  -2  -6 1082.69   68.31
   4  -2  -6 1057.44   71.02
   4  -2  -6  976.75   66.48
   4  -2  -6 1088.73   88.57
  -4   2   6  970.74   69.93
  -4   2   6 1079.14   67.30
  -4   2   6 1187.02   88.14
  -4   2   6 1051.40   70.96
  -4   2   6 1123.90   67.49
   3  -2  -6    6.38    5.71
   3  -2  -6    2.62    5.14
   3  -2  -6    5.37    2.61
   3  -2  -6   -1.10    8.75
   3  -2  -6    4.58    3.32
  -3   2   6    0.21    4.03
  -3   2   6    3.85    3.21
  -3   2   6    0.30    4.34
  -3   2   6    1.19    8.01
  -3   2   6    1.74    2.43
   2  -2  -6 1441.09   83.44
   2  -2  -6 1314.34   87.33
   2  -2  -6 1386.95  102.70
   2  -2  -6 1391.45   84.38
  -2   2   6 1331.41   87.43
  -2   2   6 1363.57   86.65
  -2   2   6 1304.17   98.84
   1  -2  -6   67.45   18.24
   1  -2  -6   58.62    8.65
   1  -2  -6   60.12    7.66
   1  -2  -6   50.43   10.60
   1  -2  -6   60.48   10.67
  -1   2   6   66.98    9.18
  -1   2   6   57.41    9.86
  -1   2   6   58.49   11.11
  -1   2   6   52.53    7.46
  -1   2   6   41.84   13.79
   0  -2  -6 1650.45  115.47
   0   2   6 1679.51  113.48
   0   2   6 1603.64  102.26
   0   2   6 1617.35  101.54
  -1  -2  -6  306.70   20.28
  -1  -2  -6  266.67   32.41
  -1  -2  -6  305.80   23.81
  -1  -2  -6  306.24   23.61
  -1  -2  -6  271.78   20.85
   1   2   6  293.08   23.89
   1   2   6  292.84   31.13
   1   2   6  350.48   24.25
   1   2   6  286.45   20.09
   1   2   6  294.23   23.25
   1   2   6  278.89   20.95
  -2  -2  -6 1854.20  129.60
   2   2   6 1855.41  123.64
   2   2   6 1800.04  114.78
   2   2   6 1955.10  115.19
  -3  -2  -6  116.78    9.62
  -3  -2  -6   83.46   10.05
  -3  -2  -6   84.23   19.23
  -3  -2  -6  117.76    8.54
   3   2   6  101.67   13.64
   3   2   6  110.74   19.24
   3   2   6   99.26    9.84
   3   2   6   92.50   12.06
   3   2   6  101.52    8.30
   3   2   6   96.34   13.31
  -4  -2  -6  823.05   50.97
  -4  -2  -6  860.83   52.27
  -4  -2  -6  815.91   50.01
  -4  -2  -6  822.81   65.72
   4   2   6  767.36   60.49
   4   2   6  873.39   58.08
   4   2   6  857.28   52.59
   4   2   6  795.91   54.11
  -5  -2  -6    5.00    9.99
  -5  -2  -6    6.07    2.63
  -5  -2  -6    5.28    2.20
   5   2   6    7.24    6.19
   5   2   6    3.87    7.26
   5   2   6    7.50    3.63
   5   2   6    4.30    4.16
  -6  -2  -6  672.81   56.19
   6   2   6  656.03   52.82
   6   2   6  633.86   50.38
   6   2   6  685.63   43.97
  -7  -2  -6   24.81   13.13
   7   2   6   39.54    8.49
   7   2   6   30.29   12.83
   7   2   6   44.19    8.37
   7   2   6   19.34   10.41
  -8  -2  -6  480.54   46.17
   8   2   6  414.27   41.43
   8   2   6  435.69   40.42
   8   2   6  439.98   32.63
   8   2   6  441.57   32.78
  -9  -2  -6   -4.35   14.86
  -9  -2  -6    5.72   18.67
   9   2   6   14.53    6.37
   9   2   6    7.92    5.08
   9   2   6    4.01    9.67
 -10  -2  -6  158.64   34.79
 -10  -2  -6  198.23   33.19
  10   2   6  179.54   18.12
  10   2   6  124.77   25.19
 -11  -2  -6   -0.81   26.48
 -11  -2  -6   -5.13   20.68
  11   2   6   -0.46    5.72
  11   2   6   -5.88    8.94
  11  -3  -6   96.53   21.03
  11  -3  -6  107.42   22.71
  10  -3  -6   53.33   15.62
  10  -3  -6   31.33   38.20
  10  -3  -6   59.42   16.21
 -10   3   6   57.65   13.02
 -10   3   6   66.76   38.11
   9  -3  -6  203.31   28.36
   9  -3  -6  159.36   46.21
   9  -3  -6  215.34   28.65
  -9   3   6  161.74   18.46
  -9   3   6  193.34   46.63
  -9   3   6  182.51   17.10
  -9   3   6  213.68   21.50
   8  -3  -6   24.94   26.38
   8  -3  -6   19.63   10.19
   8  -3  -6   34.71   11.01
  -8   3   6   29.14    7.55
  -8   3   6   25.75    7.48
  -8   3   6   22.04    8.10
  -8   3   6   35.90   26.00
  -8   3   6    7.37    7.49
   7  -3  -6  468.72   41.05
   7  -3  -6  478.93   35.16
   7  -3  -6  556.94   63.48
   7  -3  -6  541.94   43.29
  -7   3   6  521.92   36.83
  -7   3   6  500.38   38.96
  -7   3   6  576.55   37.02
  -7   3   6  533.36   62.17
  -7   3   6  518.05   40.61
   6  -3  -6  188.13   25.29
   6  -3  -6  203.83   41.21
   6  -3  -6  225.14   22.49
   6  -3  -6  202.01   16.70
   6  -3  -6  195.90   18.98
  -6   3   6  195.97   17.81
  -6   3   6  180.29   20.30
  -6   3   6  200.84   38.91
  -6   3   6  203.24   19.83
  -6   3   6  226.39   17.93
   5  -3  -6  621.12   65.96
   5  -3  -6  727.03   50.38
   5  -3  -6  649.09   43.84
   5  -3  -6  617.54   45.83
   5  -3  -6  736.76   49.46
  -5   3   6  723.68   45.33
  -5   3   6  627.18   47.65
  -5   3   6  790.80   69.34
  -5   3   6  651.98   48.66
  -5   3   6  652.87   46.76
  -5   3   6  659.48   44.25
   4  -3  -6   37.52    8.37
   4  -3  -6   51.47   10.87
   4  -3  -6   39.06   10.65
   4  -3  -6   30.85    6.08
   4  -3  -6   30.77   16.74
  -4   3   6   33.09    9.26
  -4   3   6   48.59    8.24
  -4   3   6   38.26    8.72
  -4   3   6   35.25    6.51
  -4   3   6   36.54    8.78
  -4   3   6   37.89   17.72
   3  -3  -6  590.51   58.08
   3  -3  -6  572.39   40.64
   3  -3  -6  532.65   41.45
   3  -3  -6  529.87   38.32
   3  -3  -6  570.40   37.03
  -3   3   6  557.47   36.95
  -3   3   6  562.77   40.13
  -3   3   6  583.70   55.56
  -3   3   6  563.74   37.89
  -3   3   6  580.97   41.49
   2  -3  -6    4.29   12.59
   2  -3  -6    1.83    5.20
   2  -3  -6    3.91    2.74
   2  -3  -6    3.26    2.00
   2  -3  -6   -4.19    4.07
  -2   3   6    2.38    2.83
  -2   3   6    1.19    4.67
  -2   3   6    3.97    2.40
  -2   3   6    1.39    3.82
  -2   3   6    7.93   10.79
   1  -3  -6 1241.09   81.07
   1  -3  -6 1300.41   77.18
   1  -3  -6 1268.97   78.37
   1  -3  -6 1237.01   94.99
   1  -3  -6 1307.61   80.63
  -1   3   6 1328.17   94.72
  -1   3   6 1261.13   80.08
  -1   3   6 1177.28   80.96
   0  -3  -6   32.47    7.40
   0  -3  -6   28.84    7.78
   0  -3  -6   34.65   15.06
   0  -3  -6   42.65    5.76
   0  -3  -6   39.40    6.83
   0   3   6   41.41   14.09
   0   3   6   32.29    7.56
   0   3   6   42.27    9.19
   0   3   6   22.05    4.45
   0   3   6   29.48    5.57
  -1  -3  -6 2064.41  139.54
   1   3   6 2049.97  125.82
   1   3   6 2064.66  136.77
  -2  -3  -6   41.97    6.23
  -2  -3  -6   19.53    5.61
  -2  -3  -6   35.67    5.06
  -2  -3  -6   15.17    9.32
   2   3   6   35.67    5.94
   2   3   6   63.03   10.84
   2   3   6   39.80    5.27
   2   3   6   18.95    9.40
   2   3   6   14.98    5.82
   2   3   6   19.62    6.16
  -3  -3  -6  422.81   40.67
  -3  -3  -6  449.50   27.44
  -3  -3  -6  383.98   27.24
  -3  -3  -6  449.21   28.59
   3   3   6  460.17   32.98
   3   3   6  445.33   27.45
   3   3   6  398.69   30.24
   3   3   6  405.39   30.70
   3   3   6  410.65   28.09
   3   3   6  414.73   37.32
  -4  -3  -6   51.49    4.92
  -4  -3  -6   64.00    5.70
  -4  -3  -6   51.64    5.19
  -4  -3  -6   52.74   14.90
   4   3   6   52.87   12.28
   4   3   6   69.02   12.15
   4   3   6   56.59    9.11
   4   3   6   63.38    5.80
   4   3   6   56.40    9.63
  -5  -3  -6  712.86   42.64
  -5  -3  -6  608.42   55.36
   5   3   6  709.35   42.51
   5   3   6  677.01   51.66
   5   3   6  715.92   44.31
   5   3   6  647.98   45.63
   5   3   6  755.02   51.12
  -6  -3  -6   32.80   13.25
   6   3   6   33.10   11.29
   6   3   6   29.66    5.96
   6   3   6   44.09    7.78
   6   3   6   31.17    9.17
   6   3   6   37.60    3.96
  -7  -3  -6  816.92   62.16
   7   3   6  745.15   44.85
   7   3   6  692.97   55.69
   7   3   6  775.42   48.61
   7   3   6  769.10   49.74
   7   3   6  713.24   55.37
  -8  -3  -6   32.99   15.85
   8   3   6   31.07   12.21
   8   3   6   40.36    7.95
   8   3   6   37.16    7.99
  -9  -3  -6  173.19   29.89
  -9  -3  -6  178.15   29.49
   9   3   6  195.67   17.66
   9   3   6  195.53   25.01
   9   3   6  193.60   17.73
 -10  -3  -6   29.79   17.95
 -10  -3  -6    3.53   16.56
  10   3   6   -2.38    4.38
  10   3   6   10.03    9.25
  10   3   6    1.77    3.84
 -11  -3  -6  130.07   26.42
 -11  -3  -6  148.22   27.69
  11   3   6  132.65   18.25
  11   3   6  167.50   28.83
  11  -4  -6   11.94   10.39
  11  -4  -6   30.57   11.77
 -11   4   6    2.87    5.53
 -11   4   6   -0.80    3.21
 -11   4   6   25.66    7.53
  10  -4  -6  275.22   65.25
  10  -4  -6  168.22   27.74
  10  -4  -6  147.80   25.08
 -10   4   6  202.59   55.58
 -10   4   6  154.57   19.61
 -10   4   6  139.29   23.89
 -10   4   6  181.24   17.33
   9  -4  -6   62.18   15.16
   9  -4  -6   71.56   42.40
   9  -4  -6   62.03   16.58
  -9   4   6   64.02   13.61
  -9   4   6   55.88   10.40
  -9   4   6   62.37   11.57
  -9   4   6   92.53   39.00
   8  -4  -6  222.76   24.75
   8  -4  -6  254.40   27.24
   8  -4  -6  192.25   49.78
  -8   4   6  208.27   23.06
  -8   4   6  233.97   23.51
  -8   4   6  214.24   20.01
  -8   4   6  251.44   20.91
  -8   4   6  167.52   44.08
   7  -4  -6   29.64   11.41
   7  -4  -6   47.85   11.44
   7  -4  -6   24.24   22.72
   7  -4  -6   37.34    6.69
  -7   4   6   68.44   11.18
  -7   4   6   44.71   11.75
  -7   4   6   22.52    6.97
  -7   4   6   41.09   11.23
  -7   4   6   49.22   27.55
   6  -4  -6  330.48   27.82
   6  -4  -6  404.50   50.37
   6  -4  -6  299.35   22.30
   6  -4  -6  274.19   27.83
  -6   4   6  264.20   26.51
  -6   4   6  314.25   24.39
  -6   4   6  314.03   50.58
  -6   4   6  275.41   26.67
  -6   4   6  287.06   22.88
   5  -4  -6  117.43   13.11
   5  -4  -6  107.63   16.78
   5  -4  -6  119.24   11.33
   5  -4  -6  155.21   21.07
   5  -4  -6  159.03   37.32
  -5   4   6  116.59   16.79
  -5   4   6  118.27   13.11
  -5   4   6  114.19   30.29
  -5   4   6  104.75   11.46
  -5   4   6  121.32   18.08
  -5   4   6  129.93   19.09
   4  -4  -6  344.13   28.59
   4  -4  -6  364.73   48.30
   4  -4  -6  320.08   24.38
   4  -4  -6  311.52   26.33
   4  -4  -6  366.03   30.79
  -4   4   6  348.19   28.15
  -4   4   6  347.72   29.41
  -4   4   6  365.73   25.21
  -4   4   6  387.48   26.91
  -4   4   6  300.52   42.59
  -4   4   6  360.32   29.27
   3  -4  -6  113.92   10.65
   3  -4  -6  146.06   31.98
   3  -4  -6  115.37   15.37
   3  -4  -6  124.67   12.89
   3  -4  -6  134.72   18.19
  -3   4   6  102.30   13.45
  -3   4   6  105.09   10.68
  -3   4   6  109.81   16.32
  -3   4   6  127.47   13.33
  -3   4   6  107.68   25.70
   2  -4  -6  795.75   50.27
   2  -4  -6  817.16   53.56
   2  -4  -6  810.76   70.83
   2  -4  -6  804.26   52.12
   2  -4  -6  852.13   55.43
  -2   4   6  783.40   50.29
  -2   4   6  789.27   52.71
  -2   4   6  838.92   55.26
  -2   4   6  731.45   51.03
  -2   4   6  717.69   67.16
   1  -4  -6  520.81   52.26
   1  -4  -6  552.00   34.40
   1  -4  -6  469.44   35.16
   1  -4  -6  565.27   38.70
   1  -4  -6  530.36   37.10
  -1   4   6  535.06   35.46
  -1   4   6  513.08   36.53
  -1   4   6  481.46   37.97
  -1   4   6  501.64   49.74
  -1   4   6  548.30   34.56
   0  -4  -6 2371.36  164.15
   0   4   6 2516.33  162.71
  -1  -4  -6  351.67   25.64
  -1  -4  -6  315.91   22.70
  -1  -4  -6  314.97   25.14
  -1  -4  -6  317.33   23.46
   1   4   6  358.46   23.84
   1   4   6  365.76   35.85
   1   4   6  343.79   25.53
   1   4   6  318.14   22.80
   1   4   6  363.19   26.87
  -2  -4  -6 1205.32   87.27
   2   4   6 1147.78   84.52
   2   4   6 1162.30   75.21
   2   4   6 1215.32   74.81
  -3  -4  -6   64.37    6.71
  -3  -4  -6   78.11   18.58
  -3  -4  -6   70.60    6.15
  -3  -4  -6   77.09    6.59
   3   4   6   66.68   10.63
   3   4   6   79.87   11.14
   3   4   6   71.74    7.04
   3   4   6   76.19   15.82
   3   4   6   68.30    7.42
  -4  -4  -6  433.66   27.43
  -4  -4  -6  332.17   36.88
   4   4   6  407.68   35.15
   4   4   6  455.63   33.35
   4   4   6  412.08   29.73
   4   4   6  400.46   30.53
   4   4   6  444.24   27.44
   4   4   6  416.68   27.49
  -5  -4  -6   19.38   11.78
   5   4   6   26.00    4.42
   5   4   6   20.76    5.54
   5   4   6   23.62    8.55
   5   4   6   22.94    8.53
   5   4   6   27.19    5.03
  -6  -4  -6  515.21   44.61
   6   4   6  572.45   42.54
   6   4   6  571.19   33.96
   6   4   6  501.34   36.02
   6   4   6  511.85   39.89
  -7  -4  -6   19.07   10.97
   7   4   6   22.68    5.53
   7   4   6   18.15    3.47
   7   4   6   14.88    7.82
   7   4   6   13.66    4.15
   7   4   6   14.38    7.89
  -8  -4  -6  263.16   29.43
  -8  -4  -6  273.19   28.36
   8   4   6  278.45   22.01
   8   4   6  300.66   29.73
   8   4   6  289.27   18.79
   8   4   6  310.92   21.50
  -9  -4  -6   22.15    9.98
  -9  -4  -6   11.30    9.24
   9   4   6   11.12    5.04
   9   4   6    7.61    4.93
   9   4   6   10.86    1.87
   9   4   6    9.89    9.07
  10   4   6  219.38   18.79
  10   4   6  194.57   30.19
  10   4   6  204.41   18.62
  11   4   6   11.09   12.41
  11   4   6   11.03    6.03
  11   4   6   10.62    5.58
  10  -5  -6   70.84   51.47
  10  -5  -6   33.44   12.80
  10  -5  -6   66.82   17.41
 -10   5   6   38.60   38.95
 -10   5   6   41.24   10.22
 -10   5   6   54.22   10.63
   9  -5  -6  221.93   31.64
   9  -5  -6  164.75   51.31
   9  -5  -6  236.99   30.40
  -9   5   6  257.33   22.17
  -9   5   6  110.60   46.51
  -9   5   6  191.85   24.68
  -9   5   6  223.09   19.94
   8  -5  -6   14.32   31.30
   8  -5  -6   22.30   11.00
   8  -5  -6   31.81   10.73
  -8   5   6   33.99    7.71
  -8   5   6   43.61   25.18
  -8   5   6   54.55   11.05
  -8   5   6   25.90    9.83
   7  -5  -6  238.67   24.35
   7  -5  -6  280.24   51.37
   7  -5  -6  222.05   25.08
  -7   5   6  283.21   49.86
  -7   5   6  177.91   22.76
  -7   5   6  211.00   18.82
  -7   5   6  242.18   21.02
   6  -5  -6   29.62    9.40
   6  -5  -6   -2.31   24.94
   6  -5  -6   32.17    5.82
   6  -5  -6   25.54   10.51
  -6   5   6   11.01    6.40
  -6   5   6   28.84    6.78
  -6   5   6   31.57   23.59
  -6   5   6   21.55    9.54
   5  -5  -6  643.05   42.82
   5  -5  -6  698.96   71.56
   5  -5  -6  722.06   51.32
   5  -5  -6  582.30   46.62
  -5   5   6  695.50   45.62
  -5   5   6  642.89   46.74
  -5   5   6  591.44   48.39
  -5   5   6  593.72   67.47
  -5   5   6  674.23   43.34
  -5   5   6  639.95   48.40
   4  -5  -6  130.99   20.50
   4  -5  -6  129.28   17.26
   4  -5  -6  119.74   11.64
   4  -5  -6   92.69   31.44
   4  -5  -6  120.65   13.89
  -4   5   6  133.30   13.79
  -4   5   6  122.12   12.00
  -4   5   6  143.65   20.33
  -4   5   6  130.97   14.06
  -4   5   6  137.38   32.12
  -4   5   6  126.36   16.55
   3  -5  -6  505.47   35.32
   3  -5  -6  566.28   41.73
   3  -5  -6  542.16   38.14
   3  -5  -6  530.28   59.49
   3  -5  -6  578.32   39.09
  -3   5   6  496.75   37.75
  -3   5   6  478.17   40.60
  -3   5   6  683.81   60.44
  -3   5   6  529.71   35.65
  -3   5   6  520.08   40.58
  -3   5   6  514.63   37.25
   2  -5  -6   87.95   23.95
   2  -5  -6   90.45   12.94
   2  -5  -6   79.53   12.16
   2  -5  -6   76.10    8.25
   2  -5  -6   76.23   13.85
  -2   5   6   67.88   21.25
  -2   5   6   89.42    9.06
  -2   5   6   67.40   10.70
  -2   5   6   64.14   13.06
  -2   5   6   94.06   12.34
   1  -5  -6 1429.40   89.29
   1  -5  -6 1343.91   87.13
   1  -5  -6 1451.85   89.89
   1  -5  -6 1443.72  110.37
   1  -5  -6 1517.32   92.30
  -1   5   6 1494.76   89.33
  -1   5   6 1395.67   91.99
  -1   5   6 1402.97  106.77
   0  -5  -6   38.34    7.85
   0  -5  -6   33.21   14.83
   0  -5  -6   44.19    7.97
   0  -5  -6   43.88    6.75
   0  -5  -6   49.32    9.91
   0   5   6   48.74    7.95
   0   5   6   40.77    7.81
   0   5   6   36.22    8.71
   0   5   6   30.62   15.80
   0   5   6   34.77    6.29
  -1  -5  -6 1069.80   67.30
  -1  -5  -6 1048.86   67.57
  -1  -5  -6 1034.50   65.84
  -1  -5  -6 1176.04   85.07
  -1  -5  -6 1061.35   65.49
   1   5   6 1005.59   66.03
   1   5   6 1098.12   69.42
   1   5   6 1024.97   79.90
   1   5   6 1077.76   67.37
  -2  -5  -6  104.39   21.87
  -2  -5  -6  108.92    9.52
  -2  -5  -6  114.50   10.00
  -2  -5  -6  117.40   10.61
   2   5   6   99.82   20.31
   2   5   6  120.38   10.77
   2   5   6  106.20   12.22
   2   5   6  106.35   11.76
   2   5   6  119.49   10.30
  -3  -5  -6 1273.76   74.87
  -3  -5  -6 1188.68   88.53
   3   5   6 1194.62   77.18
   3   5   6 1192.32   76.77
   3   5   6 1251.41   86.26
  -4  -5  -6   21.35   11.64
  -4  -5  -6   50.51    6.96
   4   5   6   45.66   12.12
   4   5   6   70.94   10.24
   4   5   6   58.25    9.39
   4   5   6   53.90    7.25
   4   5   6   48.78    6.98
  -5  -5  -6 1507.97   99.54
   5   5   6 1432.83   94.04
   5   5   6 1534.71   96.14
   5   5   6 1421.05   90.56
  -6  -5  -6  104.96   16.73
   6   5   6   86.40    8.52
   6   5   6   79.29    8.09
   6   5   6   99.69   10.07
   6   5   6   99.50   12.30
   6   5   6  103.49   17.51
  -7  -5  -6  573.51   40.35
   7   5   6  627.09   39.18
   7   5   6  519.55   44.77
   7   5   6  605.95   37.44
   8   5   6    6.84    3.14
   8   5   6    4.62    6.67
   8   5   6    8.93    3.03
   8   5   6   14.48    4.55
   9   5   6  345.76   22.42
   9   5   6  349.38   25.15
   9   5   6  310.88   33.01
   9   5   6  328.39   23.78
  10   5   6   13.56    2.77
  10   5   6    8.04    9.93
  10   5   6   12.01    4.43
  10   5   6   11.63    5.32
  11   5   6  145.15   14.08
  11   5   6  121.10   13.69
  11   5   6  126.53   23.69
  11   5   6  124.73   22.20
  10  -6  -6   74.04   19.18
  10  -6  -6   70.46   17.26
  10  -6  -6   -6.91   51.42
 -10   6   6   49.82   11.22
 -10   6   6   75.92   51.72
 -10   6   6   97.73   14.76
   9  -6  -6   13.59    9.40
   9  -6  -6   20.09   11.88
   9  -6  -6   37.40   40.59
  -9   6   6    9.74    7.11
  -9   6   6   14.14   30.71
  -9   6   6    7.68    5.29
   8  -6  -6  140.49   25.02
   8  -6  -6   86.28   43.97
   8  -6  -6   95.71   18.09
  -8   6   6  120.33   17.21
  -8   6   6   99.77   14.02
  -8   6   6  145.82   47.50
   7  -6  -6   36.86   34.01
   7  -6  -6   43.38   12.10
   7  -6  -6   24.24   12.20
  -7   6   6   37.97   10.29
  -7   6   6   55.90    9.30
  -7   6   6   24.99   11.24
  -7   6   6   46.79   31.29
   6  -6  -6  428.75   71.36
   6  -6  -6  470.32   40.72
   6  -6  -6  518.27   38.95
  -6   6   6  457.08   33.42
  -6   6   6  486.58   36.01
  -6   6   6  422.00   39.63
  -6   6   6  508.25   66.37
   5  -6  -6   23.18    8.49
   5  -6  -6    5.62    7.97
   5  -6  -6   19.19   18.04
  -5   6   6   23.16    6.08
  -5   6   6   25.32    8.18
  -5   6   6   42.80   24.98
  -5   6   6   23.82    9.26
  -5   6   6   45.70    9.79
   4  -6  -6  506.26   35.74
   4  -6  -6  497.10   42.25
   4  -6  -6  596.66   40.51
   4  -6  -6  477.30   39.02
   4  -6  -6  549.25   64.81
  -4   6   6  516.17   42.96
  -4   6   6  502.55   38.50
  -4   6   6  600.92   47.02
  -4   6   6  522.05   61.55
  -4   6   6  515.04   36.15
  -4   6   6  580.42   39.33
   3  -6  -6   73.03   12.55
   3  -6  -6   66.43   13.28
   3  -6  -6   57.53    8.61
   3  -6  -6   59.06   10.90
   3  -6  -6   53.53   27.00
  -3   6   6   50.65   22.79
  -3   6   6   74.63   14.02
  -3   6   6   57.91   13.77
  -3   6   6   31.77    7.02
  -3   6   6   75.93   11.12
  -3   6   6   50.24   10.07
   2  -6  -6 1375.89   83.83
   2  -6  -6 1194.40   77.27
   2  -6  -6 1383.33  107.02
   2  -6  -6 1119.50   79.30
   2  -6  -6 1296.60   79.96
  -2   6   6 1278.45   79.07
  -2   6   6 1162.56   82.39
  -2   6   6 1283.55   79.84
  -2   6   6 1234.27  100.53
   1  -6  -6   59.00   12.05
   1  -6  -6   70.75   11.16
   1  -6  -6   52.05    9.54
   1  -6  -6   82.22   24.92
  -1   6   6   48.26   19.55
  -1   6   6   72.91   11.48
  -1   6   6   77.35    9.95
  -1   6   6   62.60    9.51
  -1   6   6   80.82   14.00
   0  -6  -6  911.02   59.39
   0  -6  -6  847.44   57.98
   0  -6  -6  970.48   61.93
   0  -6  -6  896.94   59.32
   0  -6  -6  977.07   81.52
   0   6   6  954.93   77.72
   0   6   6  921.87   59.63
   0   6   6  960.59   58.71
   0   6   6  945.55   59.05
   0   6   6  924.53   62.60
  -1  -6  -6   57.16   19.15
  -1  -6  -6   70.00   11.01
  -1  -6  -6   58.39    8.30
  -1  -6  -6   61.35    8.48
   1   6   6   48.42   17.65
   1   6   6   67.66    9.52
   1   6   6   46.35    7.52
   1   6   6   71.86   12.14
   1   6   6   59.72    9.28
  -2  -6  -6  587.04   58.28
  -2  -6  -6  656.68   42.49
  -2  -6  -6  738.17   44.68
  -2  -6  -6  695.33   43.48
   2   6   6  755.63   59.55
   2   6   6  705.09   45.27
   2   6   6  637.32   46.65
   2   6   6  782.81   44.85
   2   6   6  612.87   44.15
  -3  -6  -6  113.83   10.28
  -3  -6  -6  122.86   23.44
   3   6   6  118.62   11.56
   3   6   6  115.67   10.48
   3   6   6  112.56   14.60
   3   6   6   86.17    9.65
   3   6   6   77.77   18.51
  -4  -6  -6  841.92   66.25
   4   6   6  835.13   53.44
   4   6   6  874.88   55.93
   4   6   6  827.99   62.43
   4   6   6  837.86   55.82
   4   6   6  909.47   54.33
  -5  -6  -6    8.37    9.27
   5   6   6    8.42    3.44
   5   6   6   16.60    5.53
   5   6   6   18.84    4.60
   5   6   6   19.44    5.87
   5   6   6    2.62    6.59
  -6  -6  -6  488.99   37.88
   6   6   6  557.25   34.65
   6   6   6  553.09   36.02
   6   6   6  553.50   35.28
   6   6   6  657.79   44.88
   6   6   6  494.08   36.39
   7   6   6    3.95    3.79
   7   6   6    3.27    6.28
   7   6   6    4.30    3.22
   7   6   6    3.12    2.56
   8   6   6  329.82   23.02
   8   6   6  321.23   23.65
   8   6   6  321.14   31.18
   9   6   6   24.56    5.63
   9   6   6   21.30    4.50
   9   6   6   13.89    3.90
   9   6   6   10.80    8.82
  10   6   6  204.86   15.33
  10   6   6  213.66   25.59
  10   6   6  190.18   15.58
  10   6   6  198.64   16.61
  10   6   6  209.01   27.09
  10  -7  -6   38.06   12.97
 -10   7   6   35.06   10.14
 -10   7   6   16.44   51.74
   9  -7  -6   75.14   62.64
   9  -7  -6   61.30   18.07
   9  -7  -6   87.77   18.50
  -9   7   6   87.04   15.82
  -9   7   6   82.13   13.04
  -9   7   6   47.39   51.52
   8  -7  -6   20.72   43.66
   8  -7  -6   34.51   13.73
   8  -7  -6   12.50    9.32
  -8   7   6   -3.50   28.90
  -8   7   6   19.36    6.70
  -8   7   6   18.88    8.53
   7  -7  -6  233.50   25.10
   7  -7  -6  280.09   62.28
   7  -7  -6  267.78   29.05
  -7   7   6  281.47   60.83
  -7   7   6  229.00   20.98
  -7   7   6  278.73   25.05
   6  -7  -6   49.94   38.78
   6  -7  -6   80.93   17.96
   6  -7  -6   62.12   13.91
  -6   7   6   80.82   15.16
  -6   7   6   59.56   30.07
  -6   7   6  105.79   12.90
   5  -7  -6  158.81   43.08
   5  -7  -6  213.61   29.13
   5  -7  -6  181.96   19.91
  -5   7   6  176.06   16.77
  -5   7   6  253.12   51.01
  -5   7   6  191.15   19.72
   4  -7  -6    3.84    5.44
   4  -7  -6   -6.30    6.06
   4  -7  -6  -32.01   22.22
  -4   7   6   14.45   22.99
  -4   7   6    7.81    5.13
  -4   7   6    5.22    4.20
  -4   7   6   -0.34    3.26
   3  -7  -6  544.62   41.85
   3  -7  -6  564.15   68.65
   3  -7  -6  583.47   45.69
   3  -7  -6  593.94   41.50
  -3   7   6  561.82   40.22
  -3   7   6  545.69   41.46
  -3   7   6  591.25   39.40
  -3   7   6  739.59   70.00
  -3   7   6  539.73   47.02
   2  -7  -6  101.28   28.16
   2  -7  -6  102.74   15.37
   2  -7  -6  110.12   14.37
   2  -7  -6  123.51   11.43
   2  -7  -6   84.62   16.40
  -2   7   6  144.31   22.38
  -2   7   6  123.05   16.22
  -2   7   6  104.92   11.12
  -2   7   6  106.03   11.70
  -2   7   6  120.17   31.91
  -2   7   6   99.86   17.14
   1  -7  -6  700.66   47.48
   1  -7  -6  659.39   46.33
   1  -7  -6  706.15   48.50
   1  -7  -6  787.74   51.90
   1  -7  -6  705.51   72.24
  -1   7   6  745.34   70.26
  -1   7   6  753.40   49.16
  -1   7   6  737.39   46.79
  -1   7   6  652.15   51.08
  -1   7   6  692.26   46.79
   0  -7  -6    2.53    3.76
   0  -7  -6    1.55    2.90
   0  -7  -6   -2.53    4.53
   0  -7  -6    7.12    4.07
   0   7   6   27.31   18.63
   0   7   6    3.98    3.59
   0   7   6   -0.19    2.37
   0   7   6    1.38    3.81
   0   7   6    1.83    4.68
  -1  -7  -6  939.12   59.45
  -1  -7  -6  898.75   58.69
  -1  -7  -6  973.59   60.85
  -1  -7  -6  912.40   80.81
   1   7   6  951.78   60.51
   1   7   6  940.46   78.30
   1   7   6  871.38   58.97
   1   7   6  951.14   58.58
   1   7   6  947.59   63.22
  -2  -7  -6   57.63    8.46
  -2  -7  -6   22.03   16.39
  -2  -7  -6   47.29    5.30
  -2  -7  -6   44.16    6.11
   2   7   6   47.98   17.36
   2   7   6   38.10    7.78
   2   7   6   38.28    7.29
   2   7   6   54.72    9.93
   2   7   6   50.12    7.61
  -3  -7  -6 1109.41   73.78
  -3  -7  -6 1150.39   89.66
   3   7   6 1209.97   74.10
   3   7   6 1184.47   74.06
   3   7   6 1193.19   74.00
   3   7   6 1215.80   76.70
   3   7   6 1248.06   87.76
  -4  -7  -6   35.21   15.66
   4   7   6   61.76   10.06
   4   7   6   57.67    8.43
   4   7   6   35.53   13.71
   4   7   6   49.24    8.18
   4   7   6   59.31    9.49
  -5  -7  -6  229.25   26.49
   5   7   6  223.44   17.37
   5   7   6  237.65   18.55
   5   7   6  215.41   19.09
   5   7   6  234.70   19.34
   5   7   6  264.44   24.10
   6   7   6   27.45    5.96
   6   7   6   18.06    4.55
   6   7   6   29.18    6.60
   6   7   6   34.24    7.96
   7   7   6  431.01   29.93
   7   7   6  455.16   37.78
   7   7   6  435.52   29.90
   7   7   6  400.94   27.55
   8   7   6    0.36    2.08
   8   7   6    1.34    3.11
   8   7   6    1.14    6.93
   8   7   6    4.07    3.75
   9   7   6  221.03   25.82
   9   7   6  223.17   22.63
   9   7   6  220.36   17.21
   9   7   6  206.64   17.44
  10   7   6    4.33    7.95
  10   7   6   13.71    4.23
  10   7   6    4.88    5.85
  10   7   6    7.40    3.28
  10   7   6    2.92    3.61
   9  -8  -6   56.43   14.41
   9  -8  -6   46.29   15.94
  -9   8   6   41.16    9.44
  -9   8   6  -13.95   32.81
  -9   8   6  107.13   59.10
  -9   8   6   48.51   12.67
   8  -8  -6  147.93   23.09
   8  -8  -6  154.28   28.22
  -8   8   6   71.60   42.49
  -8   8   6  144.53   17.65
  -8   8   6  184.46   23.81
   7  -8  -6  -28.75   44.83
   7  -8  -6   28.08   11.70
   7  -8  -6   17.66    9.06
  -7   8   6   24.42    9.51
  -7   8   6  -36.22   26.79
  -7   8   6   24.18    6.97
   6  -8  -6  236.40   31.63
   6  -8  -6  281.30   62.29
   6  -8  -6  206.36   22.53
  -6   8   6  224.16   23.01
  -6   8   6  116.71   41.94
  -6   8   6  211.84   19.11
   5  -8  -6   19.43   11.12
   5  -8  -6   69.51   12.98
   5  -8  -6   47.58   38.38
  -5   8   6   64.13   36.70
  -5   8   6   36.61    8.45
  -5   8   6   44.68   11.29
   4  -8  -6  226.78   29.88
   4  -8  -6  145.50   42.12
   4  -8  -6  156.61   17.65
  -4   8   6  183.29   16.54
  -4   8   6  147.67   42.16
  -4   8   6  152.58   17.71
   3  -8  -6   91.78   35.97
   3  -8  -6   86.89   17.04
   3  -8  -6   81.91   12.95
  -3   8   6   61.46   12.56
  -3   8   6   57.85   29.98
  -3   8   6   81.04   11.68
   2  -8  -6  372.02   28.50
   2  -8  -6  392.39   30.11
   2  -8  -6  331.27   58.03
   2  -8  -6  398.71   33.46
  -2   8   6  337.40   27.42
  -2   8   6  371.90   30.23
  -2   8   6  358.84   57.52
   1  -8  -6   96.63   14.52
   1  -8  -6  106.56   31.88
   1  -8  -6  110.11   17.61
   1  -8  -6   87.68   11.60
  -1   8   6   85.84   28.59
  -1   8   6   98.00   14.97
  -1   8   6   78.79   11.70
  -1   8   6   81.11    9.02
   0  -8  -6  281.98   22.68
   0  -8  -6  263.09   20.49
   0  -8  -6  290.81   25.15
   0   8   6  290.58   20.30
   0   8   6  282.07   23.93
   0   8   6  291.66   26.46
   0   8   6  360.54   45.92
   0   8   6  273.14   22.06
  -1  -8  -6   34.44   20.94
  -1  -8  -6   31.18    6.03
  -1  -8  -6   25.84    7.38
   1   8   6   36.56    7.66
   1   8   6   37.99    8.48
   1   8   6   44.84   10.32
   1   8   6   56.73   21.98
   1   8   6   35.67    5.62
  -2  -8  -6  730.55   72.33
  -2  -8  -6  871.76   48.58
   2   8   6  888.94   52.88
   2   8   6  817.45   55.64
   2   8   6  593.31   65.80
   2   8   6  806.07   49.47
   2   8   6  725.02   52.28
  -3  -8  -6    8.95   17.00
   3   8   6   40.26    7.61
   3   8   6   39.89    6.10
   3   8   6   29.35   17.75
   3   8   6   33.36    8.48
   3   8   6   39.61    7.96
   4   8   6  250.52   19.98
   4   8   6  269.33   21.17
   4   8   6  255.32   31.05
   4   8   6  281.70   20.98
   4   8   6  261.10   22.37
   5   8   6    6.77    5.01
   5   8   6    8.01    4.48
   5   8   6    2.28    3.28
   5   8   6    8.60    7.30
   5   8   6   -1.66    9.25
   5   8   6    6.28    4.50
   6   8   6  253.90   20.66
   6   8   6  246.43   20.60
   6   8   6  251.26   20.50
   6   8   6  248.15   18.76
   7   8   6   10.86    9.10
   7   8   6   34.05    7.92
   7   8   6   20.16    5.88
   7   8   6   23.81    4.70
   7   8   6   14.43    5.33
   8   8   6  179.83   15.27
   8   8   6  200.20   16.79
   8   8   6  198.45   23.74
   8   8   6  178.03   18.45
   8   8   6  167.68   13.27
   9   8   6    0.96    3.53
   9   8   6    2.13    3.29
   9   8   6    2.19    2.31
   9   8   6   -5.04    3.32
   9   8   6   -1.30    6.13
   8  -9  -6   38.55   11.62
   8  -9  -6   37.27   12.48
  -8   9   6  -24.32   42.20
  -8   9   6   12.01   49.49
  -8   9   6   52.81   13.16
  -8   9   6   31.32    8.34
   7  -9  -6  109.17   18.74
   7  -9  -6  125.99   25.49
  -7   9   6   92.72   57.59
  -7   9   6  160.94   22.79
  -7   9   6  104.48   15.19
   6  -9  -6    2.47    6.36
   6  -9  -6    4.28    9.50
  -6   9   6   22.97    7.08
  -6   9   6   23.41    9.73
  -6   9   6  100.54   49.83
   5  -9  -6  196.07   20.71
   5  -9  -6  152.98   56.81
   5  -9  -6  195.73   30.27
  -5   9   6  111.18   44.61
  -5   9   6  257.88   23.77
  -5   9   6  193.15   18.70
   4  -9  -6   43.67   40.45
   4  -9  -6   66.73   12.54
   4  -9  -6   65.11   16.98
  -4   9   6   90.11   33.87
  -4   9   6   47.62    9.89
  -4   9   6   90.37   16.03
   3  -9  -6  322.24   32.91
   3  -9  -6  360.44   28.10
   3  -9  -6  292.33   62.59
  -3   9   6  359.50   30.62
  -3   9   6  352.91   62.07
  -3   9   6  337.36   27.00
   2  -9  -6  114.00   14.06
   2  -9  -6  107.10   19.33
   2  -9  -6   84.74   15.34
   2  -9  -6   73.29   34.92
  -2   9   6   88.51   31.68
  -2   9   6  114.65   16.93
  -2   9   6   90.73   13.56
   1  -9  -6  478.50   64.05
   1  -9  -6  487.66   34.08
   1  -9  -6  423.04   30.23
   1  -9  -6  473.39   37.60
  -1   9   6  442.96   34.98
  -1   9   6  421.82   32.33
  -1   9   6  318.85   57.46
   0  -9  -6   42.72   27.32
   0  -9  -6   64.47   10.30
   0  -9  -6   70.97   14.04
   0   9   6   40.02   25.04
   0   9   6   83.40   12.01
   0   9   6   75.26   13.30
  -1  -9  -6  469.83   31.33
  -1  -9  -6  304.90   55.24
   1   9   6  384.33   31.37
   1   9   6  376.75   29.83
   1   9   6  456.27   54.48
   2   9   6   22.94   20.32
   2   9   6   32.51    7.47
   2   9   6   33.21    8.38
   2   9   6   28.56    8.49
   3   9   6  273.54   22.02
   3   9   6  318.47   41.21
   3   9   6  277.28   22.70
   3   9   6  254.62   16.75
   3   9   6  269.59   24.34
   4   9   6    2.13    1.83
   4   9   6    4.15    5.53
   4   9   6    8.04    4.68
   4   9   6    1.96    1.94
   4   9   6    3.59    3.96
   4   9   6   12.45   11.01
   4   9   6   12.68   15.27
   5   9   6  336.02   25.60
   5   9   6  324.86   23.55
   5   9   6  339.00   26.60
   5   9   6  342.60   33.73
   5   9   6  356.50   28.18
   5   9   6  347.56   24.08
   5   9   6  340.49   30.32
   6   9   6    4.11    3.68
   6   9   6    3.53    4.97
   6   9   6    0.29    2.61
   6   9   6   -0.86    3.52
   6   9   6    5.66    4.37
   7   9   6  169.06   13.12
   7   9   6  137.35   14.28
   7   9   6  133.12   14.73
   7   9   6  121.66   13.86
   7   9   6  151.18   14.92
   8   9   6   27.74    7.96
   8   9   6   10.12    3.70
   8   9   6   14.41    5.22
   8   9   6   30.30   12.28
   8   9   6   28.47    6.92
   7 -10  -6   23.42    9.67
   7 -10  -6   26.41   13.19
  -7  10   6  -16.79   42.02
  -7  10   6   78.86   54.80
  -7  10   6   25.45    7.93
  -7  10   6   49.29   14.06
   6 -10  -6  208.69   31.60
   6 -10  -6  134.54   19.91
  -6  10   6  134.51   17.76
  -6  10   6  217.47   53.73
  -6  10   6   80.00   49.71
  -6  10   6   99.27   19.42
   5 -10  -6   26.13    8.39
   5 -10  -6   25.10   12.95
  -5  10   6   12.51    6.32
  -5  10   6    1.94   33.95
  -5  10   6  -39.37   43.51
  -5  10   6   28.42   10.58
   4 -10  -6  391.66   30.67
   4 -10  -6  413.77   37.75
  -4  10   6  334.27   28.91
  -4  10   6  362.87   32.85
  -4  10   6  306.84   66.14
  -4  10   6  409.58   65.00
   3 -10  -6   34.55    8.58
   3 -10  -6   53.41   14.49
  -3  10   6   58.06   12.99
  -3  10   6   50.45   28.15
  -3  10   6   44.35    9.79
  -3  10   6   31.88   38.95
   2 -10  -6  254.71   20.28
   2 -10  -6  261.80   27.15
  -2  10   6  254.92   24.98
  -2  10   6  226.82   51.03
  -2  10   6  229.41   21.81
   1 -10  -6   14.66    7.40
   1 -10  -6    3.25    7.87
  -1  10   6    9.41    4.96
  -1  10   6   13.23    7.48
  -1  10   6   40.67   32.14
   0 -10  -6  257.09   23.21
   0 -10  -6  291.97   26.39
   0  10   6  284.07   25.92
   0  10   6  301.82   24.52
   0  10   6  361.16   59.76
  -1 -10  -6   19.66    6.68
   1  10   6   30.21   28.59
   1  10   6   27.07    7.51
   1  10   6    9.40    6.57
   1  10   6   30.07   19.30
   2  10   6  278.69   24.87
   2  10   6  184.54   41.58
   2  10   6  323.48   24.62
   3  10   6   31.74    8.89
   3  10   6   27.89   15.83
   3  10   6   28.60   23.65
   3  10   6   42.25    9.43
   4  10   6  362.83   30.51
   4  10   6  447.13   47.79
   4  10   6  425.42   40.93
   4  10   6  395.06   30.66
   5  10   6   31.60    7.89
   5  10   6   24.42    6.89
   5  10   6   29.51   11.87
   5  10   6   40.88   17.80
   5  10   6   35.78    9.28
   6  10   6  199.75   17.47
   6  10   6  190.32   19.58
   6  10   6  191.02   13.59
   6  10   6  222.24   19.56
   7  10   6    2.03    3.97
   7  10   6    4.48    3.11
   7  10   6    1.84    4.89
   7  10   6    2.54    4.18
   7  10   6    5.71    4.33
   5 -11  -6  193.72   19.64
   5 -11  -6  165.07   28.75
  -5  11   6  202.14   57.62
  -5  11   6  120.86   61.01
  -5  11   6  175.59   19.06
  -5  11   6  187.73   26.60
   4 -11  -6   42.73   13.89
   4 -11  -6   34.47    8.82
  -4  11   6   21.37    8.09
  -4  11   6   19.15   43.33
  -4  11   6    1.73   38.81
  -4  11   6   25.50    9.80
   3 -11  -6  299.53   31.12
   3 -11  -6  235.87   19.70
  -3  11   6  215.86   21.92
  -3  11   6  208.18   28.49
  -3  11   6  215.18   52.84
  -3  11   6  299.12   67.59
   2 -11  -6   12.82   11.32
  -2  11   6   19.11    8.64
  -2  11   6   55.54   41.81
  -2  11   6  -24.57   30.20
  -2  11   6   16.84    6.85
   1 -11  -6  217.61   21.14
   1 -11  -6  215.82   28.05
  -1  11   6  241.56   55.20
  -1  11   6  196.08   20.04
  -1  11   6  203.56   22.45
  -1  11   6  178.53   43.59
   0 -11  -6   25.23    7.12
   0 -11  -6   68.85   13.57
   0  11   6   57.33   34.00
   0  11   6   64.83   14.09
   0  11   6   40.18    9.59
   0  11   6   63.68   27.84
  -1 -11  -6  216.01   17.95
   1  11   6  170.88   46.67
   1  11   6  163.40   36.56
   1  11   6  189.74   19.59
   1  11   6  211.89   21.72
   2  11   6   14.08   27.79
   2  11   6   22.29    7.67
   2  11   6   14.14   19.96
   2  11   6   32.16    9.01
   3  11   6  221.98   21.38
   3  11   6  198.18   20.18
   3  11   6  253.63   47.53
   3  11   6  204.40   34.89
   4  11   6   11.39    6.70
   4  11   6   16.90   17.32
   4  11   6   12.10    6.19
   4  11   6   14.82   26.40
   5  11   6  208.68   32.58
   5  11   6  175.73   25.46
   5  11   6  219.05   19.92
   5  11   6  206.60   19.93
   6  11   6   14.81    6.80
   6  11   6   14.24    5.95
   3 -12  -6    6.65   11.22
  -3  12   6   16.52   35.98
  -3  12   6   23.57   55.34
  -3  12   6    7.94    6.60
  -3  12   6    4.16    7.64
   2 -12  -6  178.42   26.43
  -2  12   6   99.02   19.50
  -2  12   6   56.05   49.88
  -2  12   6  159.86   20.00
  -2  12   6  161.15   45.54
   1 -12  -6   23.45    9.91
   1 -12  -6   10.06    7.38
  -1  12   6   36.33   47.27
  -1  12   6   14.06    9.47
  -1  12   6   12.51    6.69
  -1  12   6   -4.34   29.98
   0 -12  -6  204.73   21.32
   0  12   6  142.43   53.34
   0  12   6  142.45   47.08
   0  12   6  245.88   24.57
   0  12   6  218.83   21.29
   1  12   6   18.36    9.15
   1  12   6    9.63   39.67
   1  12   6   25.30    8.21
   2  12   6  247.70   55.89
   2  12   6  157.72   20.72
   2  12   6  196.99   21.02
   3  12   6    8.75    5.92
   3  12   6   -0.66   35.35
   3  12   6    6.79    6.98
   2   8  -7  125.18   23.89
   1   8  -7   48.34   15.51
   1   8  -7  111.24   70.02
  -1  -8   7   57.44   15.30
  -1  -8   7   29.34   39.31
   0   8  -7  163.91   53.03
   0   8  -7  145.15   25.57
   0  -8   7  133.93   48.49
   0  -8   7  150.07   30.43
   0  -8   7  123.45   23.82
  -1   8  -7    4.35    9.34
  -1   8  -7  -13.95   37.95
   1  -8   7   34.33   41.31
   1  -8   7   19.49   11.04
   1  -8   7    2.98   11.47
  -2   8  -7  144.89   25.80
  -2   8  -7   89.26   50.59
   2  -8   7   76.10   42.83
   2  -8   7  106.21   25.51
   5   7  -7  132.88   13.86
   5   7  -7  147.91   24.63
   4   7  -7   20.71   11.30
   4   7  -7   26.91    9.16
   4   7  -7   29.76    7.79
  -4  -7   7   15.48    6.84
   3   7  -7  116.07   41.94
   3   7  -7   95.73   22.72
   3   7  -7  116.73   21.66
  -3  -7   7   88.69   37.32
  -3  -7   7   87.67   15.76
   2   7  -7    8.81    9.62
   2   7  -7  -14.97   31.91
  -2  -7   7   11.54    8.98
  -2  -7   7   71.34   34.69
   1   7  -7   80.23   36.77
   1   7  -7  121.64   23.06
  -1  -7   7  135.98   42.96
  -1  -7   7   86.92   16.82
  -1  -7   7  153.85   28.00
   0   7  -7  -10.43   24.68
   0   7  -7   17.71   10.52
   0  -7   7    3.81    7.94
   0  -7   7    1.79    9.90
   0  -7   7   40.40   32.97
  -1   7  -7   34.53   37.16
  -1   7  -7  119.26   22.75
   1  -7   7  119.67   42.49
   1  -7   7  125.59   23.20
   1  -7   7  101.02   24.39
  -2   7  -7   -9.35    4.72
   2  -7   7   -5.26    8.19
   2  -7   7   -0.17    7.68
   2  -7   7  -21.04   28.03
  -3   7  -7  160.71   26.86
   3  -7   7  159.67   31.72
   3  -7   7  209.66   54.90
   3  -7   7  135.15   26.18
  -4   7  -7    2.24   35.24
  -4   7  -7   10.85    5.66
  -4   7  -7   -4.14    7.55
   4  -7   7    2.55   29.57
   4  -7   7   10.57   11.65
   4  -7   7    5.91   12.40
  -5   7  -7  165.85   27.04
  -5   7  -7  125.87   15.78
  -5   7  -7   79.99   45.92
   5  -7   7  178.96   52.92
   5  -7   7  120.87   25.30
   5  -7   7  115.51   28.48
   6   6  -7  155.16   24.03
   6   6  -7  119.72   19.92
   5   6  -7   27.54   32.27
   5   6  -7   27.12    6.28
   5   6  -7   42.78   13.76
   5   6  -7   42.81   11.13
  -5  -6   7   32.56   25.75
   4   6  -7  142.12   14.79
   4   6  -7  126.78   40.12
   4   6  -7  132.79   19.47
   4   6  -7  162.15   24.36
  -4  -6   7   87.99   31.87
  -4  -6   7  164.07   17.69
   3   6  -7   14.43    7.71
   3   6  -7   11.03    9.44
   3   6  -7   16.17   28.31
   3   6  -7   20.89    6.92
  -3  -6   7  -15.54   21.83
  -3  -6   7    9.58    7.56
  -3  -6   7    0.99    6.22
   2   6  -7  150.42   17.57
   2   6  -7  141.50   23.54
   2   6  -7  160.19   40.27
  -2  -6   7  136.10   21.66
  -2  -6   7  150.96   37.06
  -2  -6   7  122.78   23.10
  -2  -6   7  155.72   21.96
  -2  -6   7  156.62   20.91
   1   6  -7    4.71    7.48
  -1  -6   7    7.37    9.47
  -1  -6   7    6.01   23.15
  -1  -6   7    7.98    8.31
  -1  -6   7    0.21    5.10
   0   6  -7  136.22   22.60
   0   6  -7  136.02   38.52
   0  -6   7  108.24   19.96
   0  -6   7  103.36   23.03
   0  -6   7   94.29   19.11
   0  -6   7  161.73   39.31
  -1   6  -7   35.65   12.23
  -1   6  -7   29.29   29.66
   1  -6   7   44.12   27.33
   1  -6   7   17.98   10.24
   1  -6   7   50.44   16.28
  -2   6  -7  119.42   37.17
  -2   6  -7  102.48   19.54
   2  -6   7  111.42   21.78
   2  -6   7  110.30   24.02
   2  -6   7   81.09   33.38
  -3   6  -7   18.45   11.06
  -3   6  -7   34.86   30.18
   3  -6   7   16.68   10.61
   3  -6   7   18.96   13.56
   3  -6   7    8.15   27.68
  -4   6  -7  146.54   24.05
  -4   6  -7  169.76   48.72
   4  -6   7  142.51   26.23
   4  -6   7  141.25   30.20
   4  -6   7   78.81   37.10
  -5   6  -7    1.49    4.04
  -5   6  -7   -2.54   23.55
  -5   6  -7    6.10    8.79
   5  -6   7   -4.18    8.19
   5  -6   7    4.47   11.79
   5  -6   7   -1.71   34.05
  -6   6  -7  169.02   27.17
  -6   6  -7  119.56   12.71
  -6   6  -7   25.80   28.73
   6  -6   7  134.57   30.75
   6  -6   7  173.43   29.53
   6  -6   7  167.23   51.02
   7   5  -7   81.01   17.46
   7   5  -7   76.80   16.24
   6   5  -7   14.29    9.18
   6   5  -7   10.96    8.86
   6   5  -7  -39.50   28.91
  -6  -5   7   26.38   22.56
   5   5  -7  126.16   21.65
   5   5  -7  131.49   20.26
   5   5  -7  147.36   11.43
   5   5  -7  144.36   38.38
  -5  -5   7  107.69   15.93
  -5  -5   7  153.80   34.92
   4   5  -7   21.14    8.80
   4   5  -7   29.49   11.39
   4   5  -7   27.92    6.60
   4   5  -7   23.82   26.07
  -4  -5   7   27.48    8.42
  -4  -5   7   11.40   20.23
  -4  -5   7   21.71    7.87
   3   5  -7  302.99   28.87
   3   5  -7  286.24   25.79
   3   5  -7  245.33   22.45
  -3  -5   7  253.71   25.24
  -3  -5   7  276.17   25.59
  -3  -5   7  239.94   24.93
  -3  -5   7  273.76   26.69
  -3  -5   7  228.56   42.49
   2   5  -7    8.08    6.16
   2   5  -7    7.84   22.04
   2   5  -7    1.14    7.39
   2   5  -7    2.31    4.78
  -2  -5   7    4.36    7.06
  -2  -5   7    8.70    7.14
  -2  -5   7    9.07   17.47
  -2  -5   7    0.99    5.00
  -2  -5   7    2.28    6.49
   1   5  -7  205.85   28.34
   1   5  -7  210.48   20.67
   1   5  -7  215.57   42.23
  -1  -5   7  164.20   36.70
  -1  -5   7  172.61   19.33
  -1  -5   7  181.06   25.65
  -1  -5   7  187.44   24.68
   0   5  -7   19.40   17.06
   0   5  -7    9.76    8.78
   0  -5   7   18.51   18.10
   0  -5   7   -1.86    4.93
   0  -5   7   -3.11    5.22
   0  -5   7    9.68    9.86
  -1   5  -7  205.09   27.40
  -1   5  -7  154.03   37.79
   1  -5   7  175.47   17.98
   1  -5   7  136.83   25.97
   1  -5   7  181.55   25.35
   1  -5   7  122.52   33.13
  -2   5  -7   13.08    8.54
  -2   5  -7   29.13   20.48
   2  -5   7   16.98    9.30
   2  -5   7    9.00   10.45
   2  -5   7   27.39   22.20
  -3   5  -7  363.99   53.87
  -3   5  -7  254.92   27.47
   3  -5   7  251.97   39.06
   3  -5   7  251.79   46.45
   3  -5   7  250.27   28.33
  -4   5  -7   -4.53    6.36
  -4   5  -7   -0.53   24.25
   4  -5   7  -16.90   23.74
   4  -5   7   12.39    9.27
   4  -5   7   -4.24    8.19
  -5   5  -7  210.46   17.46
  -5   5  -7  232.81   30.89
  -5   5  -7  219.64   44.52
   5  -5   7  176.14   33.47
   5  -5   7  202.51   29.98
   5  -5   7  145.50   41.34
  -6   5  -7  -19.11   19.72
  -6   5  -7    1.23    3.11
  -6   5  -7    2.49    7.65
   6  -5   7    3.70    7.05
   6  -5   7  -12.40   26.58
   6  -5   7   18.83   15.41
  -7   5  -7  214.31   28.67
  -7   5  -7  164.99   13.61
  -7   5  -7   56.35   37.04
   7  -5   7  160.83   48.73
   7  -5   7  176.94   28.69
   7  -5   7  166.79   34.69
  -8   5  -7    1.71    8.39
  -8   5  -7   -0.45    1.05
  -8   5  -7   -0.49    0.76
  -8   5  -7  -70.41   31.79
   8  -5   7   14.18   11.52
   8  -5   7   -2.99    8.92
   8   4  -7   99.68   19.66
   8   4  -7  145.01   22.82
   7   4  -7   25.67   10.72
   7   4  -7    0.17   29.37
   7   4  -7   27.03   10.84
  -7  -4   7   38.15   21.01
   6   4  -7  188.92   44.22
   6   4  -7  198.78   25.44
   6   4  -7  198.02   25.90
  -6  -4   7  197.53   15.08
  -6  -4   7  152.09   13.88
  -6  -4   7  148.24   33.42
   5   4  -7   84.74   16.33
   5   4  -7   45.06   27.24
   5   4  -7   93.12   17.67
  -5  -4   7  106.45   28.22
  -5  -4   7   88.91   13.15
   4   4  -7  262.51   25.78
   4   4  -7  221.43   17.29
   4   4  -7  226.75   22.91
  -4  -4   7  258.42   40.15
  -4  -4   7  192.38   20.82
  -4  -4   7  205.87   21.02
   3   4  -7   77.23   15.78
   3   4  -7   45.71   11.26
   3   4  -7   56.07    9.83
   3   4  -7   48.61   25.14
  -3  -4   7   72.50   13.42
  -3  -4   7   70.25   13.32
  -3  -4   7   69.31   13.92
  -3  -4   7   41.14   21.07
  -3  -4   7   66.92   12.85
   2   4  -7  306.40   49.98
   2   4  -7  264.16   27.59
   2   4  -7  294.04   25.96
   2   4  -7  282.53   24.05
  -2  -4   7  267.05   25.56
  -2  -4   7  341.77   41.54
  -2  -4   7  315.59   28.74
  -2  -4   7  251.55   26.00
  -2  -4   7  266.74   25.80
   1   4  -7   33.46   10.98
   1   4  -7   21.50   20.65
   1   4  -7   41.67    9.65
  -1  -4   7   13.74   17.48
  -1  -4   7   25.59    9.45
  -1  -4   7   24.10    8.66
  -1  -4   7   21.33    9.79
  -1  -4   7   29.40    8.56
   0   4  -7  331.46   27.85
   0   4  -7  348.43   30.84
   0   4  -7  274.90   46.64
   0  -4   7  288.63   30.97
   0  -4   7  298.42   28.48
   0  -4   7  308.58   27.23
   0  -4   7  241.56   41.88
  -1   4  -7   13.74    7.39
  -1   4  -7   29.58   11.06
  -1   4  -7  -14.17   18.22
   1  -4   7    8.05    6.43
   1  -4   7   22.45   19.96
   1  -4   7   29.18   12.36
   1  -4   7   21.96    9.25
  -2   4  -7  433.14   49.16
  -2   4  -7  420.50   35.10
   2  -4   7  341.91   30.39
   2  -4   7  337.49   36.86
   2  -4   7  340.37   33.10
   2  -4   7  394.93   46.10
  -3   4  -7   29.87   10.61
  -3   4  -7   18.37   20.97
   3  -4   7    9.36   18.10
   3  -4   7    8.29    8.35
   3  -4   7   13.38   10.35
  -4   4  -7  126.61   31.98
  -4   4  -7  134.53   21.49
   4  -4   7  108.35   20.79
   4  -4   7  138.42   27.55
   4  -4   7   97.78   31.56
  -5   4  -7   32.17   25.77
  -5   4  -7   15.77    9.63
   5  -4   7   -4.39    8.72
   5  -4   7    8.57    8.92
   5  -4   7    2.79   21.96
  -6   4  -7   84.16   17.91
  -6   4  -7   84.15    9.16
  -6   4  -7  106.84    9.72
  -6   4  -7  152.30   38.44
   6  -4   7  118.43   27.76
   6  -4   7   65.67   17.42
   6  -4   7  100.43   32.94
  -7   4  -7    7.23    2.81
  -7   4  -7   10.30   28.79
  -7   4  -7   17.27   10.19
  -7   4  -7   10.27    2.95
   7  -4   7   14.36   25.03
   7  -4   7   15.38   13.84
   7  -4   7    4.05    8.87
  -8   4  -7  155.24   23.77
   8  -4   7  111.48   23.51
   8  -4   7  150.68   31.32
   8  -4   7  186.04   48.71
  -9   4  -7   -2.09    7.82
  -9   4  -7   -3.43   38.74
  -9   4  -7   68.24   68.22
   9  -4   7   18.21   13.52
   9  -4   7   10.03   10.70
   9   3  -7   83.54   18.70
   9   3  -7   74.47   17.13
   8   3  -7   38.10   12.38
   8   3  -7   42.12   31.74
   8   3  -7   18.38   10.33
  -8  -3   7   15.63   20.54
   7   3  -7  253.80   49.21
   7   3  -7  281.40   28.42
   7   3  -7  263.19   28.26
  -7  -3   7  251.31   41.39
   6   3  -7  111.40   19.01
   6   3  -7   47.81   30.62
   6   3  -7   76.25   16.09
  -6  -3   7   63.19   10.36
  -6  -3   7   69.38   10.62
  -6  -3   7   80.33   24.47
   5   3  -7  208.03   42.64
   5   3  -7  258.27   25.61
   5   3  -7  243.01   25.99
  -5  -3   7  254.47   39.33
  -5  -3   7  239.76   21.90
  -5  -3   7  310.38   23.88
   4   3  -7   81.63   15.08
   4   3  -7   75.50   15.95
   4   3  -7   31.21   22.70
  -4  -3   7   89.32   15.29
  -4  -3   7  100.98   14.35
  -4  -3   7   71.48   22.43
  -4  -3   7  106.02   16.54
   3   3  -7  424.21   52.45
   3   3  -7  490.28   31.25
   3   3  -7  421.31   35.14
   3   3  -7  487.71   38.26
  -3  -3   7  406.86   35.09
  -3  -3   7  453.56   47.87
  -3  -3   7  429.82   34.04
  -3  -3   7  422.05   35.19
  -3  -3   7  421.56   33.98
   2   3  -7  211.06   20.74
   2   3  -7  198.78   17.59
   2   3  -7  177.37   37.36
   2   3  -7  190.12   25.13
  -2  -3   7  196.46   20.70
  -2  -3   7  177.01   19.25
  -2  -3   7  190.80   20.94
  -2  -3   7  192.26   19.75
  -2  -3   7  181.43   33.35
   1   3  -7  846.14   56.78
   1   3  -7  894.03   58.81
   1   3  -7  885.30   61.05
   1   3  -7  896.23   76.53
  -1  -3   7  801.48   59.39
  -1  -3   7  854.56   58.40
  -1  -3   7  754.19   69.40
  -1  -3   7  815.29   58.22
  -1  -3   7  800.92   60.24
   0   3  -7  126.60   20.35
   0   3  -7  197.33   35.18
   0   3  -7  159.19   16.87
   0  -3   7  144.00   23.73
   0  -3   7  126.94   19.09
   0  -3   7  128.00   29.46
   0  -3   7  155.64   16.97
   0  -3   7  151.87   21.53
  -1   3  -7  606.18   60.70
  -1   3  -7  613.58   45.92
  -1   3  -7  602.43   44.84
   1  -3   7  670.71   45.95
   1  -3   7  573.25   57.93
   1  -3   7  555.00   47.81
   1  -3   7  509.84   43.68
   1  -3   7  591.59   43.60
  -2   3  -7  113.77   14.51
  -2   3  -7   63.33   13.58
  -2   3  -7   56.70   22.43
   2  -3   7   54.85   11.88
   2  -3   7   86.09   15.27
   2  -3   7   72.93   18.26
   2  -3   7   57.46   21.44
  -3   3  -7  502.46   56.20
  -3   3  -7  588.73   43.30
   3  -3   7  564.84   56.50
   3  -3   7  541.10   42.42
   3  -3   7  502.77   46.97
   3  -3   7  487.58   39.93
  -4   3  -7   34.00   21.18
  -4   3  -7   32.31    6.50
  -4   3  -7   49.67   13.00
   4  -3   7   29.66   10.08
   4  -3   7   27.72   21.40
   4  -3   7   38.88   15.29
  -5   3  -7  413.72   33.60
  -5   3  -7  369.90   25.23
  -5   3  -7  404.07   51.78
   5  -3   7  292.86   37.15
   5  -3   7  309.96   32.52
   5  -3   7  418.06   50.31
  -6   3  -7    7.01   21.53
  -6   3  -7   20.79    9.76
  -6   3  -7   14.34    3.68
  -6   3  -7   18.25    4.06
   6  -3   7    8.76   11.86
   6  -3   7   17.27    9.83
   6  -3   7    4.74   16.66
  -7   3  -7  169.86   11.95
  -7   3  -7  173.52   24.49
  -7   3  -7  144.00   38.43
   7  -3   7  171.96   32.60
   7  -3   7  198.20   28.34
   7  -3   7  115.47   33.78
  -8   3  -7   -6.69   25.86
  -8   3  -7   11.52    9.01
   8  -3   7    5.71   10.02
   8  -3   7    2.71    6.32
   8  -3   7  -22.77   25.48
  -9   3  -7  117.83   18.81
  -9   3  -7   10.39   34.30
   9  -3   7  127.80   30.24
   9  -3   7   82.59   18.09
  10   2  -7   48.52   15.70
  10   2  -7   92.23   18.39
   9   2  -7   59.11   34.71
   9   2  -7   45.68   13.15
   9   2  -7   28.07   10.87
  -9  -2   7   23.76   23.26
   8   2  -7  154.50   23.95
   8   2  -7  171.67   24.74
   8   2  -7  176.81   45.47
  -8  -2   7  116.42   31.11
   7   2  -7   51.22   13.44
   7   2  -7   56.75   14.09
   7   2  -7   56.18   29.43
  -7  -2   7   48.40   22.31
  -7  -2   7   59.01    8.89
  -7  -2   7   31.92    6.83
   6   2  -7  258.75   48.92
   6   2  -7  396.36   32.76
   6   2  -7  359.13   32.10
  -6  -2   7  311.41   26.53
  -6  -2   7  326.20   26.00
  -6  -2   7  421.88   45.97
   5   2  -7   71.59   14.69
   5   2  -7   88.09   16.40
   5   2  -7   82.82   28.13
  -5  -2   7   76.26   13.46
  -5  -2   7   74.11   12.10
  -5  -2   7  108.15   27.00
   4   2  -7  735.88   50.30
   4   2  -7  656.36   50.59
   4   2  -7  529.45   64.30
   4   2  -7  760.33   52.81
  -4  -2   7  651.10   49.63
  -4  -2   7  666.42   50.56
  -4  -2   7  695.40   44.54
  -4  -2   7  789.44   48.86
  -4  -2   7  731.56   64.01
   3   2  -7  135.98   32.28
   3   2  -7  165.55   18.85
   3   2  -7  172.05   22.09
  -3  -2   7  171.41   16.58
  -3  -2   7  165.37   18.57
  -3  -2   7  185.02   17.88
  -3  -2   7  161.67   18.12
  -3  -2   7  136.13   29.27
   2   2  -7  512.77   34.70
   2   2  -7  539.07   55.67
   2   2  -7  432.00   37.88
   2   2  -7  518.08   34.07
   2   2  -7  496.11   37.77
  -2  -2   7  403.73   36.75
  -2  -2   7  470.36   36.75
  -2  -2   7  533.46   49.64
  -2  -2   7  463.62   35.87
  -2  -2   7  503.70   37.94
   1   2  -7   22.54   16.72
   1   2  -7   39.27    8.10
   1   2  -7   43.17    7.80
   1   2  -7   31.46    7.60
   1   2  -7   21.05    8.83
   1   2  -7   32.33    9.01
  -1  -2   7   24.29    7.70
  -1  -2   7   35.14   17.18
  -1  -2   7   36.96    9.23
  -1  -2   7    8.77    6.98
  -1  -2   7   28.55   10.25
   0   2  -7  643.52   42.78
   0   2  -7  590.02   44.73
   0   2  -7  638.79   47.78
   0   2  -7  709.46   63.55
   0   2  -7  744.08   47.97
   0   2  -7  636.41   43.93
   0  -2   7  612.55   57.73
   0  -2   7  598.26   48.11
   0  -2   7  665.52   46.35
   0  -2   7  650.12   46.66
   0  -2   7  650.32   47.70
  -1   2  -7    3.92    3.50
  -1   2  -7   12.64    7.81
  -1   2  -7   28.74   16.40
   1  -2   7    5.87    5.13
   1  -2   7    9.25   13.15
   1  -2   7   -4.85    4.24
   1  -2   7   27.22    8.52
   1  -2   7   24.15   10.23
  -2   2  -7  632.46   41.35
  -2   2  -7  631.12   46.73
  -2   2  -7  660.56   47.69
  -2   2  -7  672.78   62.50
  -2   2  -7  619.22   43.53
   2  -2   7  719.28   60.98
   2  -2   7  604.77   45.06
   2  -2   7  625.50   46.40
   2  -2   7  555.68   49.19
   2  -2   7  629.28   46.18
  -3   2  -7  130.99   19.27
  -3   2  -7  109.94   15.36
  -3   2  -7  133.95   17.21
  -3   2  -7  144.96   31.30
  -3   2  -7  136.05   11.60
   3  -2   7  123.57   28.23
   3  -2   7  103.02   20.94
   3  -2   7  109.70   17.50
   3  -2   7  129.70   17.76
  -4   2  -7  688.72   46.69
  -4   2  -7  767.45   64.34
  -4   2  -7  541.69   41.19
  -4   2  -7  599.51   38.45
   4  -2   7  574.18   44.98
   4  -2   7  546.00   56.15
   4  -2   7  512.55   49.22
  -5   2  -7   85.72   15.55
  -5   2  -7   79.98   12.92
  -5   2  -7   89.18    8.46
  -5   2  -7  167.62   32.00
   5  -2   7   57.50   22.21
   5  -2   7   66.29   14.88
   5  -2   7   96.55   22.42
  -6   2  -7  572.16   59.13
  -6   2  -7  501.41   38.27
  -6   2  -7  504.57   33.75
  -6   2  -7  643.26   43.60
   6  -2   7  526.11   55.29
   6  -2   7  539.71   50.16
   6  -2   7  539.70   43.13
  -7   2  -7    6.10    1.35
  -7   2  -7    3.12    0.97
  -7   2  -7    0.09    4.65
  -7   2  -7   -1.90    5.49
  -7   2  -7   -9.68   19.73
   7  -2   7   -6.20   20.18
   7  -2   7   11.03    8.89
   7  -2   7    6.44   11.46
  -8   2  -7  250.67   23.56
  -8   2  -7  179.79   40.11
   8  -2   7  240.95   30.85
   8  -2   7  237.49   38.83
   8  -2   7  152.00   38.66
  -9   2  -7    2.17    6.05
   9  -2   7   -4.47   10.45
   9  -2   7    8.74    8.57
 -10   2  -7   92.24   13.56
  10  -2   7  117.35   21.71
  10  -2   7   82.12   25.49
  10   1  -7    6.05    9.75
  10   1  -7    6.08    7.48
   9   1  -7   96.70   18.86
   9   1  -7  147.56   45.76
   9   1  -7   94.48   18.83
  -9  -1   7   47.58   28.68
   8   1  -7   46.90   30.95
   8   1  -7   88.94   17.78
   8   1  -7   69.02   16.05
  -8  -1   7   71.91   24.93
  -8  -1   7   66.27    9.13
   7   1  -7  205.00   26.25
   7   1  -7  206.90   22.92
  -7  -1   7  133.37   32.55
   6   1  -7   26.50   10.41
   6   1  -7   32.79   22.33
   6   1  -7   27.07    9.69
  -6  -1   7   45.23    8.77
  -6  -1   7  -21.89   14.29
  -6  -1   7   21.11    7.14
   5   1  -7  479.65   39.96
   5   1  -7  495.16   40.33
   5   1  -7  427.29   54.81
   5   1  -7  469.46   35.69
  -5  -1   7  579.50   55.33
  -5  -1   7  577.21   36.60
  -5  -1   7  481.19   37.60
   4   1  -7   84.54   12.01
   4   1  -7   85.11   24.96
   4   1  -7   87.67   15.59
   4   1  -7   68.97   11.52
   4   1  -7   73.69   14.51
  -4  -1   7   66.90    7.81
  -4  -1   7   98.45   15.00
  -4  -1   7   88.49   14.44
  -4  -1   7   62.24   21.04
  -4  -1   7   87.24   12.83
   3   1  -7  814.51   56.99
   3   1  -7  856.55   56.66
   3   1  -7  834.43   73.92
   3   1  -7  799.40   52.22
   3   1  -7  836.12   52.44
  -3  -1   7  801.54   68.60
  -3  -1   7  733.50   55.23
  -3  -1   7  824.26   52.98
  -3  -1   7  735.19   51.50
  -3  -1   7  724.50   55.02
   2   1  -7   41.92    9.93
   2   1  -7   66.23    9.66
   2   1  -7   55.96   21.29
   2   1  -7   52.50   12.15
   2   1  -7   47.53    8.75
  -2  -1   7   51.87   17.05
  -2  -1   7   52.85   11.74
  -2  -1   7   38.37    9.72
  -2  -1   7   44.30    9.76
  -2  -1   7   43.80    9.24
   1   1  -7  728.65   42.74
   1   1  -7  632.78   46.08
   1   1  -7  575.04   44.07
   1   1  -7  684.15   62.29
   1   1  -7  587.94   40.90
  -1  -1   7  551.01   44.04
  -1  -1   7  619.56   42.74
  -1  -1   7  577.13   45.13
  -1  -1   7  593.23   43.98
  -1  -1   7  591.24   55.12
   0   1  -7   72.82   12.83
   0   1  -7   77.52   22.50
   0   1  -7   91.13   15.13
   0   1  -7   55.26    8.77
   0   1  -7   53.77    9.97
   0  -1   7   70.54   11.96
   0  -1   7   59.94   11.45
   0  -1   7   54.83   12.49
   0  -1   7   54.30   12.01
   0  -1   7   60.35   18.47
  -1   1  -7 1437.23   89.52
  -1   1  -7 1336.23   83.40
  -1   1  -7 1387.45   87.38
  -1   1  -7 1296.78  102.72
   1  -1   7 1356.91   90.05
   1  -1   7 1366.98   86.74
   1  -1   7 1324.39   87.59
   1  -1   7 1405.50   89.13
   1  -1   7 1295.35   98.66
  -2   1  -7   -4.44    1.86
  -2   1  -7    2.70    4.90
  -2   1  -7    2.41    5.33
  -2   1  -7    2.20    4.35
  -2   1  -7   -0.97   11.70
   2  -1   7   -0.02    3.69
   2  -1   7    5.99    5.29
   2  -1   7    5.71    9.11
   2  -1   7   -5.16    5.20
   2  -1   7    4.27    4.30
  -3   1  -7  482.40   36.43
  -3   1  -7  470.46   32.78
  -3   1  -7  448.21   30.01
  -3   1  -7  471.38   49.45
  -3   1  -7  418.99   34.99
   3  -1   7  408.06   33.80
   3  -1   7  442.49   39.13
   3  -1   7  408.61   34.47
   3  -1   7  425.33   44.90
   3  -1   7  526.42   35.79
  -4   1  -7   86.93   15.55
  -4   1  -7   78.43    8.01
  -4   1  -7  117.12   16.47
  -4   1  -7   79.57   23.28
  -4   1  -7   81.35   12.34
   4  -1   7   81.68   13.89
   4  -1   7   77.33   13.07
   4  -1   7  105.48   19.84
   4  -1   7   75.35   21.20
   4  -1   7   88.10   14.78
  -5   1  -7  745.07   47.60
  -5   1  -7  650.77   49.42
  -5   1  -7  739.27   43.39
  -5   1  -7  755.58   66.17
   5  -1   7  560.63   54.44
   5  -1   7  708.91   63.55
   5  -1   7  697.91   50.25
  -6   1  -7   76.21   13.74
  -6   1  -7   49.99   21.28
  -6   1  -7   63.90    5.47
   6  -1   7   67.07   20.99
   6  -1   7   61.19   13.00
   6  -1   7   39.89   15.51
  -7   1  -7  510.65   37.06
  -7   1  -7  483.30   53.99
   7  -1   7  461.71   38.93
   7  -1   7  476.46   46.30
   7  -1   7  460.25   53.01
  -8   1  -7    6.00    5.09
  -8   1  -7   -4.20   20.12
  -8   1  -7    2.99    5.56
   8  -1   7    5.03    7.19
   8  -1   7   16.61   14.41
   8  -1   7   30.30   21.57
  -9   1  -7  268.32   21.82
  -9   1  -7  247.67   20.18
   9  -1   7  230.48   26.56
   9  -1   7  219.18   37.22
 -10   1  -7   24.01    5.40
 -10   1  -7   24.29   40.79
 -10   1  -7  -20.91   26.17
  10  -1   7   17.46   13.55
  10  -1   7   10.12    9.30
  10   0  -7  103.78   20.34
  10   0  -7  114.39   21.86
  10   0  -7   55.72   48.12
 -10   0   7  102.57   35.88
   9   0  -7   77.53   37.64
   9   0  -7   59.49   14.78
   9   0  -7   62.60   16.26
  -9   0   7   33.89   28.70
  -9   0   7   56.52    7.87
   8   0  -7  239.69   26.62
   8   0  -7  231.78   47.09
   8   0  -7  233.22   25.94
  -8   0   7  260.16   45.32
  -8   0   7  225.07   19.48
  -8   0   7  249.85   21.27
   7   0  -7   44.85   29.28
   7   0  -7   55.72   14.52
   7   0  -7   59.49   14.25
  -7   0   7   48.79   23.42
  -7   0   7   66.63   10.45
  -7   0   7   57.17   10.87
   6   0  -7  151.20   21.62
   6   0  -7  171.98   24.11
   6   0  -7  163.95   37.33
  -6   0   7  145.72   14.95
  -6   0   7  112.52   29.28
  -6   0   7  172.61   17.83
   5   0  -7    1.31    4.78
   5   0  -7   21.55    9.42
   5   0  -7    8.92   16.73
  -5   0   7    8.20    4.92
  -5   0   7    6.70    6.26
  -5   0   7   21.29    6.85
  -5   0   7    9.93   15.57
   4   0  -7  531.99   43.81
   4   0  -7  612.25   40.47
   4   0  -7  610.11   40.65
   4   0  -7  511.49   58.80
   4   0  -7  562.46   44.58
  -4   0   7  656.79   59.05
  -4   0   7  676.32   38.18
  -4   0   7  484.05   42.13
  -4   0   7  556.22   43.81
  -4   0   7  598.34   40.58
   3   0  -7   34.58   10.16
   3   0  -7   20.44   16.69
   3   0  -7   34.55    7.11
   3   0  -7   28.80    6.43
   3   0  -7   34.30    9.55
  -3   0   7   23.81   15.52
  -3   0   7   25.61    6.27
  -3   0   7   30.13    8.94
  -3   0   7   41.59    8.44
  -3   0   7   43.18    9.15
   2   0  -7  631.46   44.46
   2   0  -7  598.87   40.49
   2   0  -7  677.72   45.81
   2   0  -7  547.62   56.74
   2   0  -7  582.62   40.80
  -2   0   7  563.93   40.93
  -2   0   7  617.49   41.29
  -2   0   7  677.96   58.01
  -2   0   7  577.27   44.33
  -2   0   7  650.26   44.82
   1   0  -7    6.69    5.04
   1   0  -7    2.31   13.93
   1   0  -7    6.29    5.73
   1   0  -7   19.31    4.92
   1   0  -7   12.45    5.24
  -1   0   7    2.52    4.74
  -1   0   7   20.11    7.21
  -1   0   7    4.13   10.34
  -1   0   7   18.35    6.94
  -1   0   7   12.52    5.30
   0   0  -7  532.30   56.72
   0   0  -7  643.07   45.77
   0   0  -7  617.63   44.80
   0   0  -7  656.27   40.98
   0   0  -7  619.32   41.87
   0   0  -7  685.31   43.37
   0   0   7  629.02   44.63
   0   0   7  593.06   45.06
   0   0   7  580.59   53.62
   0   0   7  608.83   42.42
   0   0   7  626.26   44.59
  -1   0  -7   30.16   16.31
  -1   0  -7   11.79    6.30
  -1   0  -7   35.46    8.92
  -1   0  -7   27.94    5.41
  -1   0  -7   44.02   10.32
  -1   0  -7   31.51    7.17
   1   0   7   29.41    8.31
   1   0   7   12.97    9.33
   1   0   7   31.20    7.57
   1   0   7   28.70    9.45
   1   0   7   30.50    8.29
  -2   0  -7  559.99   39.24
  -2   0  -7  574.82   53.52
  -2   0  -7  567.62   34.62
  -2   0  -7  557.65   36.43
  -2   0  -7  528.61   39.27
   2   0   7  459.64   38.15
   2   0   7  492.91   36.99
   2   0   7  528.33   40.76
   2   0   7  464.47   37.71
   2   0   7  524.51   48.28
  -3   0  -7   -0.24   12.36
  -3   0  -7    1.61    4.53
  -3   0  -7    7.53    5.73
  -3   0  -7    0.14    1.98
  -3   0  -7    1.80    3.54
   3   0   7   12.80    7.83
   3   0   7   -4.22    6.71
   3   0   7    9.42    4.70
   3   0   7    6.78    5.34
   3   0   7    1.01    4.58
  -4   0  -7 1134.33   87.28
  -4   0  -7 1084.35   68.71
  -4   0  -7 1140.82   74.24
  -4   0  -7 1158.00   72.10
  -4   0  -7 1143.01   66.06
   4   0   7 1046.31   71.88
   4   0   7 1079.91   70.70
   4   0   7 1011.18   81.81
   4   0   7 1033.58   71.67
   4   0   7 1011.94   75.86
  -5   0  -7  141.57   14.61
  -5   0  -7  102.79   25.46
  -5   0  -7  105.91   13.85
  -5   0  -7  120.54    8.95
   5   0   7  100.27   19.84
   5   0   7  109.65   23.16
   5   0   7   95.96   15.22
   5   0   7  113.92   16.28
  -6   0  -7  573.19   38.48
  -6   0  -7  584.81   40.67
  -6   0  -7  573.73   33.80
   6   0   7  546.88   41.74
   6   0   7  504.91   47.62
   6   0   7  592.88   54.67
  -7   0  -7   26.63    5.96
  -7   0  -7   17.04   16.38
  -7   0  -7   11.24    6.00
   7   0   7   21.63   13.73
   7   0   7   21.89    8.32
   7   0   7   38.28   17.38
  -8   0  -7  316.97   45.28
  -8   0  -7  227.04   19.24
  -8   0  -7  240.26   18.57
   8   0   7  198.70   33.42
   8   0   7  240.54   24.26
   8   0   7  217.69   39.42
  -9   0  -7   28.85    5.21
  -9   0  -7   17.30    4.13
  -9   0  -7   21.25   24.49
   9   0   7   13.80   22.07
   9   0   7   16.03    9.08
   9   0   7   39.78   16.80
 -10   0  -7  273.23   58.46
  10   0   7  260.53   27.79
  10   0   7  254.70   40.59
 -11   0  -7  -81.27   28.69
  11   0   7   13.65   14.70
  11   0   7    1.13    6.26
  11  -1  -7  114.50   22.80
  10  -1  -7    8.78   37.07
  10  -1  -7   19.27   10.75
  10  -1  -7   15.90   10.40
 -10   1   7   12.26   31.52
 -10   1   7   19.03    4.97
   9  -1  -7  104.94   20.59
   9  -1  -7  147.12   23.88
   9  -1  -7  164.45   45.62
  -9   1   7  184.75   41.63
   8  -1  -7   57.20   14.74
   8  -1  -7   48.28   13.30
  -8   1   7   28.97    7.99
  -8   1   7   56.91   25.94
  -8   1   7   55.67   11.36
   7  -1  -7  293.54   51.24
   7  -1  -7  241.38   26.88
   7  -1  -7  280.38   28.06
  -7   1   7  298.12   25.58
  -7   1   7  263.34   22.17
  -7   1   7  280.41   45.97
   6  -1  -7   33.90   23.43
   6  -1  -7   27.69   10.56
   6  -1  -7   36.70   11.47
  -6   1   7   74.58   13.42
  -6   1   7   39.55    8.25
  -6   1   7   48.73   23.25
   5  -1  -7  316.65   25.59
   5  -1  -7  338.81   45.61
   5  -1  -7  345.92   29.87
   5  -1  -7  322.70   25.01
   5  -1  -7  273.50   28.17
  -5   1   7  304.37   22.55
  -5   1   7  309.68   28.10
  -5   1   7  324.29   48.35
  -5   1   7  348.83   25.48
  -5   1   7  345.40   28.84
  -5   1   7  371.51   21.99
   4  -1  -7  181.59   16.04
   4  -1  -7  202.61   38.49
   4  -1  -7  189.61   17.05
   4  -1  -7  182.44   20.21
   4  -1  -7  223.01   21.68
  -4   1   7  207.73   19.89
  -4   1   7  226.38   17.62
  -4   1   7  181.05   19.62
  -4   1   7  241.11   36.81
  -4   1   7  179.26   14.53
   3  -1  -7  195.73   37.29
   3  -1  -7  265.71   19.30
   3  -1  -7  228.71   21.60
   3  -1  -7  193.29   20.71
  -3   1   7  224.60   20.66
  -3   1   7  187.02   20.51
  -3   1   7  179.09   32.42
   2  -1  -7  111.59   11.83
   2  -1  -7  175.05   17.75
   2  -1  -7  123.39   12.50
   2  -1  -7  144.67   30.59
   2  -1  -7  145.78   18.15
  -2   1   7  136.41   12.92
  -2   1   7  152.69   16.05
  -2   1   7  125.48   26.02
  -2   1   7  156.76   20.13
  -2   1   7  129.52   12.50
  -2   1   7  138.04   12.88
   1  -1  -7  518.20   32.05
   1  -1  -7  438.41   35.09
   1  -1  -7  456.31   32.48
   1  -1  -7  435.98   35.61
   1  -1  -7  431.34   48.63
  -1   1   7  548.10   34.16
  -1   1   7  443.89   45.34
  -1   1   7  423.88   35.60
  -1   1   7  393.51   34.37
  -1   1   7  505.31   33.13
  -1   1   7  468.71   32.02
   0  -1  -7   33.88    6.24
   0  -1  -7   24.78   14.28
   0  -1  -7   36.95    8.96
   0  -1  -7   34.28    8.95
   0  -1  -7   48.32    8.34
   0   1   7   49.02   10.92
   0   1   7   43.46    9.11
   0   1   7   27.51   13.61
   0   1   7   42.00    9.73
   0   1   7   31.60    7.25
   0   1   7   36.03    6.60
  -1  -1  -7  503.72   38.48
  -1  -1  -7  548.86   39.09
  -1  -1  -7  449.25   50.11
  -1  -1  -7  549.60   34.48
  -1  -1  -7  552.78   35.88
   1   1   7  526.71   35.93
   1   1   7  511.58   38.38
   1   1   7  480.87   38.39
   1   1   7  539.20   34.60
   1   1   7  517.56   47.77
   1   1   7  544.53   38.78
  -2  -1  -7   38.71    7.36
  -2  -1  -7   36.95    5.84
  -2  -1  -7   28.21    8.12
  -2  -1  -7   41.46   17.08
   2   1   7   31.45    9.39
   2   1   7   27.99    7.11
   2   1   7   33.77    8.79
   2   1   7   26.15   10.95
   2   1   7   32.06    8.30
  -3  -1  -7  596.56   43.78
  -3  -1  -7  636.02   58.12
  -3  -1  -7  746.49   47.28
  -3  -1  -7  630.39   39.78
  -3  -1  -7  649.08   41.76
   3   1   7  599.85   52.47
   3   1   7  680.50   47.96
   3   1   7  516.96   43.56
   3   1   7  668.93   42.92
   3   1   7  591.68   44.36
  -4  -1  -7   66.86   12.59
  -4  -1  -7   54.79    5.64
  -4  -1  -7   51.99    8.40
  -4  -1  -7   58.38   10.34
   4   1   7   54.63   11.04
   4   1   7   60.81   10.91
   4   1   7   51.76   13.28
   4   1   7   55.81    9.91
   4   1   7   32.34   13.91
  -5  -1  -7  369.08   24.54
  -5  -1  -7  396.13   27.36
  -5  -1  -7  408.81   29.37
  -5  -1  -7  438.11   34.16
  -5  -1  -7  411.19   43.85
   5   1   7  389.84   29.50
   5   1   7  358.88   34.69
   5   1   7  387.98   39.24
   5   1   7  395.58   30.85
   5   1   7  386.23   31.12
  -6  -1  -7   51.47   19.44
  -6  -1  -7   76.54   10.78
  -6  -1  -7   62.73    4.62
  -6  -1  -7   54.45    7.83
   6   1   7   76.11   12.82
   6   1   7   73.84   12.27
   6   1   7   27.10   15.33
   6   1   7   61.74   16.50
  -7  -1  -7  278.60   40.41
   7   1   7  230.10   23.02
   7   1   7  217.16   21.21
   7   1   7  228.68   35.02
   7   1   7  248.90   29.22
  -8  -1  -7   52.67    5.08
  -8  -1  -7   40.15   19.56
   8   1   7   73.00   19.49
   8   1   7   55.38   12.04
   8   1   7   55.49   22.15
  -9  -1  -7  318.11   46.44
   9   1   7  254.37   33.40
   9   1   7  277.85   26.42
 -10  -1  -7   -8.75   24.19
 -10  -1  -7   23.41   30.28
  10   1   7   -7.01    7.98
  10   1   7    4.62    6.88
  11   1   7  105.58   25.63
  11   1   7  151.98   22.50
  11  -2  -7   54.48   15.93
  11  -2  -7   25.26   14.14
  10  -2  -7   67.08   17.37
  10  -2  -7   98.44   20.34
  10  -2  -7  104.58   47.83
 -10   2   7   75.68   37.18
 -10   2   7   85.84   12.31
   9  -2  -7    0.86   33.48
   9  -2  -7   31.09   11.93
   9  -2  -7   32.08   12.11
  -9   2   7   28.25   28.96
  -9   2   7   25.46    8.81
  -9   2   7   26.18    7.40
   8  -2  -7  196.65   27.44
   8  -2  -7  218.12   28.00
  -8   2   7  189.22   23.92
  -8   2   7  166.80   13.48
  -8   2   7  234.13   45.30
   7  -2  -7  121.30   36.09
   7  -2  -7   99.50   17.34
   7  -2  -7  106.60   19.56
  -7   2   7   86.48   10.24
  -7   2   7  114.42   16.67
  -7   2   7   99.53   29.36
   6  -2  -7  706.07   52.03
   6  -2  -7  728.94   74.21
   6  -2  -7  723.45   51.77
  -6   2   7  670.42   45.27
  -6   2   7  653.89   44.78
  -6   2   7  618.63   48.91
  -6   2   7  667.07   68.26
   5  -2  -7   43.80   11.87
   5  -2  -7   73.66   26.41
   5  -2  -7   46.24   10.77
   5  -2  -7   49.72    9.27
   5  -2  -7   51.40    8.58
  -5   2   7   32.45    7.81
  -5   2   7   52.34   21.10
  -5   2   7   54.29    9.34
  -5   2   7   66.30   12.92
  -5   2   7   36.16    8.05
  -5   2   7   46.61   10.78
   4  -2  -7  593.57   40.22
   4  -2  -7  569.93   43.96
   4  -2  -7  551.52   59.68
   4  -2  -7  547.28   38.49
   4  -2  -7  543.61   42.84
  -4   2   7  523.22   41.69
  -4   2   7  596.93   39.40
  -4   2   7  616.24   59.53
  -4   2   7  556.07   42.88
  -4   2   7  626.88   39.59
   3  -2  -7  100.39   25.94
   3  -2  -7   73.59   11.09
   3  -2  -7   55.64   11.80
   3  -2  -7   85.86   15.26
   3  -2  -7   72.76    9.96
  -3   2   7   47.57    8.65
  -3   2   7   61.40   11.69
  -3   2   7   92.76   23.92
  -3   2   7   57.44    8.74
  -3   2   7   55.15   11.65
   2  -2  -7  813.70   57.45
   2  -2  -7  884.20   59.22
   2  -2  -7  800.25   73.62
   2  -2  -7  873.34   54.02
   2  -2  -7  865.32   55.09
  -2   2   7  797.59   70.12
  -2   2   7  823.88   53.91
  -2   2   7  895.85   54.88
  -2   2   7  801.22   57.43
  -2   2   7  870.95   58.99
   1  -2  -7  476.64   47.74
   1  -2  -7  399.98   27.94
   1  -2  -7  353.00   28.25
   1  -2  -7  416.91   32.12
   1  -2  -7  441.83   33.04
  -1   2   7  423.22   32.77
  -1   2   7  404.42   29.42
  -1   2   7  392.24   28.66
  -1   2   7  444.74   44.80
  -1   2   7  394.64   27.95
  -1   2   7  443.99   32.21
   0  -2  -7 1275.19   75.66
   0  -2  -7 1195.17   79.76
   0  -2  -7 1145.61   76.29
   0  -2  -7 1325.99   80.38
   0  -2  -7 1169.71   93.62
   0   2   7 1238.22   91.90
   0   2   7 1261.54   79.88
   0   2   7 1254.57   80.55
  -1  -2  -7   15.52    6.44
  -1  -2  -7   25.19    7.50
  -1  -2  -7   53.75    6.70
  -1  -2  -7   47.95    7.47
  -1  -2  -7   16.96   12.39
   1   2   7   45.71    6.27
   1   2   7    6.59    5.43
   1   2   7   27.70    8.10
   1   2   7    7.39   10.30
   1   2   7   55.88    9.86
  -2  -2  -7 1188.35   74.45
  -2  -2  -7 1094.70   71.34
  -2  -2  -7 1164.25   70.32
  -2  -2  -7 1197.98   90.28
   2   2   7 1136.72   74.63
   2   2   7 1135.05   75.11
   2   2   7 1120.59   84.35
   2   2   7 1203.21   70.53
  -3  -2  -7   18.47    3.70
  -3  -2  -7   14.32    4.51
  -3  -2  -7    7.24    4.83
   3   2   7   15.48    9.90
   3   2   7   26.79    6.15
   3   2   7   25.94    8.86
   3   2   7   29.35    4.66
   3   2   7   20.73    6.19
   3   2   7    6.80    4.86
  -4  -2  -7  894.22   75.37
  -4  -2  -7  962.58   60.21
  -4  -2  -7  971.25   57.05
  -4  -2  -7  963.00   58.46
   4   2   7 1028.12   60.32
   4   2   7  926.22   65.23
   4   2   7  898.54   62.46
   4   2   7  861.04   69.09
   4   2   7  879.16   61.74
  -5  -2  -7   24.00    5.74
  -5  -2  -7   26.16   14.96
  -5  -2  -7   25.73    4.74
  -5  -2  -7   26.42    3.64
   5   2   7   27.32    9.88
   5   2   7   13.93   10.93
   5   2   7   26.35    6.60
   5   2   7   24.95    6.96
   5   2   7   30.33    7.76
  -6  -2  -7  725.43   43.39
  -6  -2  -7  719.04   44.37
  -6  -2  -7  745.32   44.95
  -6  -2  -7  811.53   65.57
   6   2   7  702.11   48.13
   6   2   7  650.20   54.49
   6   2   7  698.58   49.69
   6   2   7  759.24   58.98
  -7  -2  -7   52.31   20.13
   7   2   7   50.30   16.70
   7   2   7   61.53   11.32
   7   2   7   72.78   11.89
   7   2   7   63.39   16.14
  -8  -2  -7  600.70   53.60
   8   2   7  463.91   35.42
   8   2   7  416.80   45.77
   8   2   7  477.70   35.73
   8   2   7  443.16   42.46
  -9  -2  -7    8.92   19.79
   9   2   7   13.06    6.82
   9   2   7   27.66   12.57
 -10  -2  -7  189.71   38.03
 -10  -2  -7  107.88   35.67
  10   2   7  184.27   19.29
  10   2   7  135.89   27.64
 -11  -2  -7    0.95   26.50
  11   2   7    1.53   10.73
  11   2   7    8.11    7.09
  11  -3  -7  106.34   23.28
  11  -3  -7   96.72   21.82
  10  -3  -7   18.66   41.56
  10  -3  -7   47.92   15.22
  10  -3  -7   28.05   13.25
 -10   3   7   40.37   39.20
 -10   3   7   35.60   10.27
   9  -3  -7   96.40   20.95
   9  -3  -7  140.92   23.88
   9  -3  -7   96.84   46.75
  -9   3   7  163.08   17.06
  -9   3   7  147.31   42.45
  -9   3   7   92.28   12.58
   8  -3  -7   28.18   11.94
   8  -3  -7    9.62   30.36
   8  -3  -7   24.84   11.53
  -8   3   7   26.46    7.84
  -8   3   7   31.29    9.79
  -8   3   7   34.29    8.90
  -8   3   7   17.57   27.22
   7  -3  -7  180.62   25.03
   7  -3  -7  170.26   41.82
   7  -3  -7  191.86   27.79
  -7   3   7  197.24   18.52
  -7   3   7  241.99   22.33
  -7   3   7  192.32   41.17
  -7   3   7  211.67   20.20
  -7   3   7  205.70   18.86
   6  -3  -7  150.65   21.92
   6  -3  -7  177.76   25.02
   6  -3  -7  149.73   39.87
  -6   3   7  174.60   16.12
  -6   3   7  197.57   39.47
  -6   3   7  171.74   16.03
  -6   3   7  158.22   22.02
  -6   3   7  148.97   16.89
   5  -3  -7  394.12   30.55
   5  -3  -7  447.76   35.55
   5  -3  -7  374.91   32.49
   5  -3  -7  400.47   53.65
   5  -3  -7  363.61   27.99
  -5   3   7  403.81   29.07
  -5   3   7  382.40   30.54
  -5   3   7  430.96   33.44
  -5   3   7  476.24   52.60
  -5   3   7  374.22   32.66
  -5   3   7  362.26   28.82
   4  -3  -7   -1.81    2.54
   4  -3  -7   -0.90   15.42
   4  -3  -7    7.47    7.11
   4  -3  -7    3.05    3.27
   4  -3  -7    1.99    5.72
  -4   3   7    1.36    3.07
  -4   3   7    2.89    4.77
  -4   3   7   -3.89    3.08
  -4   3   7   -1.36    5.05
  -4   3   7   15.77   12.75
   3  -3  -7 1193.11   75.45
   3  -3  -7 1217.67   78.22
   3  -3  -7 1152.24   73.61
   3  -3  -7 1117.23   96.84
   3  -3  -7 1210.10   79.37
  -3   3   7 1159.28   77.59
  -3   3   7 1187.81   73.90
  -3   3   7 1189.40   95.27
  -3   3   7 1220.11   79.17
   2  -3  -7   65.44    8.62
   2  -3  -7   54.59   11.00
   2  -3  -7   65.43   10.61
   2  -3  -7   54.26   20.82
   2  -3  -7   96.94   15.05
  -2   3   7   62.03   11.00
  -2   3   7   63.26    8.90
  -2   3   7   81.25   21.67
  -2   3   7   55.16   11.86
  -2   3   7   61.86    9.56
   1  -3  -7 1100.14   72.27
   1  -3  -7 1079.03   68.21
   1  -3  -7 1109.81   69.63
   1  -3  -7 1103.71   73.08
  -1   3   7 1102.17   71.83
  -1   3   7 1186.95   68.67
  -1   3   7 1131.83   86.71
  -1   3   7 1011.20   72.46
  -1   3   7 1094.80   69.05
   0  -3  -7  494.00   36.64
   0  -3  -7  490.63   33.95
   0  -3  -7  569.03   52.00
   0  -3  -7  523.61   37.12
   0  -3  -7  476.13   32.64
   0   3   7  490.22   32.85
   0   3   7  501.24   37.41
   0   3   7  467.62   47.66
   0   3   7  514.67   36.55
   0   3   7  485.88   33.53
  -1  -3  -7  802.94   57.60
  -1  -3  -7  823.82   57.60
  -1  -3  -7  969.03   54.53
  -1  -3  -7  736.80   69.22
  -1  -3  -7  837.98   55.05
   1   3   7  849.11   57.91
   1   3   7  995.26   58.91
   1   3   7  784.46   58.09
   1   3   7  794.35   67.95
   1   3   7  939.85   54.46
   1   3   7  912.68   55.37
  -2  -3  -7  155.65   13.74
  -2  -3  -7  173.95   13.14
  -2  -3  -7  199.21   16.52
   2   3   7  174.75   16.30
   2   3   7  144.99   16.42
   2   3   7  178.91   13.27
   2   3   7  152.42   13.76
   2   3   7  161.61   16.65
   2   3   7  186.67   28.58
  -3  -3  -7 1002.36   61.47
  -3  -3  -7 1010.48   59.18
  -3  -3  -7 1018.48   77.83
  -3  -3  -7  928.51   59.60
   3   3   7  926.53   63.33
   3   3   7  891.71   63.08
   3   3   7  968.20   60.43
   3   3   7  947.90   71.84
   3   3   7  983.75   65.06
  -4  -3  -7    1.46    2.25
  -4  -3  -7    0.55   10.85
  -4  -3  -7    4.88    2.23
  -4  -3  -7    5.18    3.37
   4   3   7    1.48    1.95
   4   3   7    2.39    7.36
   4   3   7   -0.40    4.20
   4   3   7    2.45    4.30
   4   3   7    3.63    5.60
  -5  -3  -7  540.46   33.32
  -5  -3  -7  506.35   33.06
  -5  -3  -7  575.62   53.26
  -5  -3  -7  562.98   34.19
   5   3   7  561.47   34.18
   5   3   7  545.21   42.74
   5   3   7  579.46   36.80
   5   3   7  551.02   40.21
   5   3   7  500.19   45.03
   5   3   7  537.52   38.47
  -6  -3  -7    1.59   13.65
   6   3   7    7.08    8.94
   6   3   7    6.01    3.75
   6   3   7    3.86    4.17
   6   3   7   13.86    7.56
  -7  -3  -7  416.06   45.40
   7   3   7  399.83   38.49
   7   3   7  434.21   37.76
   7   3   7  420.59   31.44
   7   3   7  449.71   30.58
   7   3   7  400.38   25.63
  -8  -3  -7   22.26   17.55
   8   3   7   29.17    7.68
   8   3   7   20.91    6.44
   8   3   7    7.26   12.35
   8   3   7   22.90   11.43
  -9  -3  -7  213.34   35.28
   9   3   7  150.89   27.03
   9   3   7  180.36   18.18
   9   3   7  233.18   19.85
 -10  -3  -7  -12.54   19.95
 -10  -3  -7    6.85   21.05
  10   3   7    2.79   10.51
  10   3   7    1.12    4.38
 -11  -3  -7  147.98   33.01
  11   3   7  102.32   16.76
  11   3   7  133.63   26.87
  10  -4  -7  113.88   23.46
  10  -4  -7  181.46   29.73
  10  -4  -7  229.91   64.26
 -10   4   7  172.99   55.77
   9  -4  -7   76.72   18.63
   9  -4  -7   82.58   44.57
   9  -4  -7   95.49   18.24
  -9   4   7   40.97   11.24
  -9   4   7   60.89   11.85
  -9   4   7   92.20   13.45
  -9   4   7   32.93   37.47
   8  -4  -7  224.37   48.66
   8  -4  -7  217.88   28.74
   8  -4  -7  227.98   31.19
  -8   4   7  236.62   20.73
  -8   4   7  191.54   45.87
  -8   4   7  246.96   20.84
  -8   4   7  188.88   22.31
   7  -4  -7    2.69   29.15
   7  -4  -7   31.74   12.49
   7  -4  -7   12.19    8.78
  -7   4   7   44.73   29.07
  -7   4   7   35.22   10.11
  -7   4   7   50.45    9.28
  -7   4   7   30.56    8.59
   6  -4  -7  393.40   32.30
   6  -4  -7  362.09   33.18
   6  -4  -7  249.18   51.79
  -6   4   7  357.75   26.46
  -6   4   7  326.61   26.70
  -6   4   7  333.66   29.36
  -6   4   7  372.96   57.36
  -6   4   7  316.21   30.22
   5  -4  -7  104.75   11.47
   5  -4  -7  175.87   23.64
   5  -4  -7  174.46   39.46
   5  -4  -7  165.28   21.07
  -5   4   7  115.10   18.37
  -5   4   7  109.49   16.39
  -5   4   7  106.94   29.56
  -5   4   7  121.20   15.64
  -5   4   7  135.86   12.93
  -5   4   7  119.10   15.52
   4  -4  -7  634.40   67.46
   4  -4  -7  618.62   40.51
   4  -4  -7  597.73   46.51
   4  -4  -7  597.23   44.60
   4  -4  -7  645.91   43.26
  -4   4   7  582.92   44.46
  -4   4   7  611.49   63.64
  -4   4   7  607.80   40.49
  -4   4   7  576.27   41.44
  -4   4   7  602.54   44.01
  -4   4   7  575.07   45.17
   3  -4  -7    4.23    5.80
   3  -4  -7    3.84    3.36
   3  -4  -7    5.74    4.02
   3  -4  -7    5.58   16.41
   3  -4  -7    5.00    6.68
  -3   4   7   25.72   14.63
  -3   4   7    8.50    4.81
  -3   4   7    6.78    5.26
  -3   4   7   17.30    7.42
  -3   4   7    9.75    3.95
   2  -4  -7  867.05   58.11
   2  -4  -7  900.50   60.27
   2  -4  -7  890.60   56.36
   2  -4  -7  905.36   61.83
   2  -4  -7  936.83   80.05
  -2   4   7  897.77   56.57
  -2   4   7  930.22   57.80
  -2   4   7  815.93   58.79
  -2   4   7  956.88   76.95
  -2   4   7  841.36   61.19
   1  -4  -7    7.88    6.39
   1  -4  -7   -0.89   12.80
   1  -4  -7    7.13    5.17
   1  -4  -7   13.48    5.40
   1  -4  -7    4.81    3.06
  -1   4   7    3.46   10.74
  -1   4   7   15.30    4.31
  -1   4   7   18.79    7.45
  -1   4   7   13.73    5.69
  -1   4   7    5.03    3.49
   0  -4  -7 1088.91   70.20
   0  -4  -7 1215.97   91.29
   0  -4  -7 1144.05   72.79
   0  -4  -7 1107.79   73.16
   0  -4  -7 1148.59   69.14
   0   4   7 1087.54   72.10
   0   4   7 1091.56   85.91
   0   4   7 1162.33   70.18
   0   4   7 1033.94   73.30
  -1  -4  -7  119.42   11.64
  -1  -4  -7  110.32   10.49
  -1  -4  -7  145.94   14.22
  -1  -4  -7  120.84   13.47
  -1  -4  -7  124.77   27.13
   1   4   7  117.48   11.54
   1   4   7  127.82   13.58
   1   4   7  132.37   11.08
   1   4   7  107.07   23.36
   1   4   7  126.85   14.28
  -2  -4  -7  983.63   60.68
  -2  -4  -7  908.39   77.00
  -2  -4  -7 1009.18   60.25
  -2  -4  -7  925.84   62.19
   2   4   7  975.53   74.55
   2   4   7  968.37   64.44
   2   4   7 1006.44   64.07
   2   4   7  981.96   60.99
  -3  -4  -7   83.41    8.11
  -3  -4  -7   90.87    9.25
  -3  -4  -7  127.10   25.47
  -3  -4  -7   78.00    7.84
   3   4   7   89.63   13.42
   3   4   7   62.68   16.52
   3   4   7   88.42    8.26
   3   4   7   92.04   13.16
   3   4   7   84.41    8.84
   3   4   7   90.77   15.25
  -4  -4  -7  715.47   45.14
  -4  -4  -7  764.18   47.08
  -4  -4  -7  839.54   64.60
   4   4   7  726.96   57.51
   4   4   7  713.74   50.67
   4   4   7  782.17   47.21
   4   4   7  769.40   51.66
   4   4   7  769.04   48.05
  -5  -4  -7   21.68    4.23
  -5  -4  -7   11.57   12.12
   5   4   7   24.32    4.40
   5   4   7   39.09   10.70
   5   4   7   21.82    9.86
   5   4   7   16.08    6.62
   5   4   7   22.09    6.66
  -6  -4  -7  937.53   69.11
   6   4   7  802.55   52.86
   6   4   7  850.25   61.05
   6   4   7  831.48   51.18
   6   4   7  870.83   61.78
   6   4   7  771.26   54.84
  -7  -4  -7   53.70   17.19
   7   4   7   31.29   11.85
   7   4   7   49.67   12.91
   7   4   7   58.50    8.72
   7   4   7   42.05    8.71
   7   4   7   46.17    5.73
  -8  -4  -7  400.50   40.21
   8   4   7  333.38   25.66
   8   4   7  340.40   32.52
   8   4   7  351.44   34.42
   8   4   7  367.51   27.72
   8   4   7  347.93   22.21
  -9  -4  -7   14.30   15.66
  -9  -4  -7    7.97   14.48
   9   4   7   12.32    5.41
   9   4   7    0.19    7.62
   9   4   7    5.80    5.10
 -10  -4  -7  188.99   26.19
 -10  -4  -7  169.64   25.70
  10   4   7  163.12   28.79
  10   4   7  126.70   18.46
  10   4   7  181.35   17.13
 -11  -4  -7    0.40    7.45
 -11  -4  -7   -4.68    6.50
  11   4   7   -3.71    8.47
  11   4   7    0.73    5.05
  10  -5  -7   35.89   11.83
  10  -5  -7   32.85   43.06
  10  -5  -7   46.47   15.63
 -10   5   7   37.62   42.72
 -10   5   7   48.32   10.79
 -10   5   7   50.99   11.16
   9  -5  -7  126.86   24.36
   9  -5  -7  109.95   21.41
   9  -5  -7  102.41   51.39
  -9   5   7  185.42   53.59
  -9   5   7  151.83   16.66
  -9   5   7  148.61   19.57
  -9   5   7  146.86   18.05
   8  -5  -7   78.97   42.46
   8  -5  -7   75.39   16.95
   8  -5  -7   59.13   16.31
  -8   5   7   69.93   11.71
  -8   5   7  107.81   41.11
  -8   5   7   69.00   15.71
  -8   5   7   55.04   11.90
   7  -5  -7  210.04   29.57
   7  -5  -7  242.15   24.82
   7  -5  -7  138.88   43.25
  -7   5   7  204.34   23.35
  -7   5   7  197.18   19.85
  -7   5   7  215.81   49.99
  -7   5   7  213.43   19.05
   6  -5  -7   51.39   13.86
   6  -5  -7   37.34   26.31
   6  -5  -7   42.22   11.71
  -6   5   7   51.80   10.85
  -6   5   7   50.63    9.38
  -6   5   7   78.55   32.92
  -6   5   7   46.99   11.92
   5  -5  -7  548.54   43.52
   5  -5  -7  556.47   41.92
   5  -5  -7  604.32   69.18
  -5   5   7  566.49   64.09
  -5   5   7  528.67   42.34
  -5   5   7  488.43   36.34
  -5   5   7  479.64   39.61
  -5   5   7  538.22   38.51
   4  -5  -7  177.32   23.79
   4  -5  -7  158.82   14.57
   4  -5  -7  201.00   19.51
   4  -5  -7  188.95   17.72
   4  -5  -7  171.41   39.34
  -4   5   7  174.33   19.63
  -4   5   7  166.77   15.27
  -4   5   7  146.17   35.94
  -4   5   7  149.47   16.27
  -4   5   7  171.13   17.98
  -4   5   7  212.26   20.71
   3  -5  -7  605.71   62.18
   3  -5  -7  537.15   38.70
   3  -5  -7  499.43   34.41
   3  -5  -7  471.44   36.43
   3  -5  -7  501.86   40.37
  -3   5   7  469.01   39.40
  -3   5   7  597.47   58.56
  -3   5   7  524.13   37.71
  -3   5   7  587.12   35.48
  -3   5   7  398.55   34.74
   2  -5  -7   82.75   15.03
   2  -5  -7   86.09   12.58
   2  -5  -7   79.57   10.10
   2  -5  -7   76.52   12.74
   2  -5  -7   74.55   28.09
  -2   5   7   69.51    9.98
  -2   5   7   66.99   13.52
  -2   5   7   69.24   11.82
  -2   5   7   80.38   23.66
  -2   5   7   60.53   10.83
   1  -5  -7  783.18   52.49
   1  -5  -7  700.24   48.77
   1  -5  -7  755.06   50.47
   1  -5  -7  705.72   68.83
   1  -5  -7  741.56   47.23
  -1   5   7  774.49   50.06
  -1   5   7  722.87   47.25
  -1   5   7  757.27   67.09
  -1   5   7  683.97   51.74
  -1   5   7  700.25   48.23
   0  -5  -7    6.98   12.26
   0  -5  -7   -2.04    3.45
   0  -5  -7    4.40    2.97
   0  -5  -7    2.09    4.94
   0  -5  -7    3.83    3.98
   0   5   7    3.76    4.14
   0   5   7    1.51    2.87
   0   5   7    2.70    3.54
   0   5   7   -0.40    4.82
   0   5   7    6.52   12.51
  -1  -5  -7  528.01   32.17
  -1  -5  -7  473.82   34.43
  -1  -5  -7  453.09   32.29
  -1  -5  -7  506.24   35.02
   1   5   7  536.70   48.45
   1   5   7  441.56   33.96
   1   5   7  435.79   35.29
   1   5   7  484.40   32.66
   1   5   7  431.52   31.44
  -2  -5  -7   57.63   19.38
  -2  -5  -7   65.70    9.51
  -2  -5  -7   51.42    7.58
  -2  -5  -7   38.05    6.61
   2   5   7   43.88   10.01
   2   5   7   58.66    8.61
   2   5   7   45.40   16.63
   2   5   7   65.57    8.43
   2   5   7   70.85   11.43
  -3  -5  -7  609.29   54.88
  -3  -5  -7  570.22   36.90
  -3  -5  -7  602.36   37.45
  -3  -5  -7  623.30   38.71
   3   5   7  562.79   41.35
   3   5   7  651.58   39.00
   3   5   7  554.61   41.68
   3   5   7  579.50   38.83
   3   5   7  626.33   52.05
  -4  -5  -7   37.13   15.16
  -4  -5  -7   27.37    5.35
   4   5   7   27.95    5.40
   4   5   7   49.88   13.70
   4   5   7   30.35    7.35
   4   5   7   45.75   11.98
   4   5   7   27.93    6.98
   4   5   7   29.83    5.93
  -5  -5  -7  679.16   42.22
  -5  -5  -7  598.46   54.92
   5   5   7  661.03   50.35
   5   5   7  740.82   50.19
   5   5   7  599.33   45.59
   5   5   7  617.62   42.05
   5   5   7  699.71   42.25
   5   5   7  668.23   45.39
  -6  -5  -7   16.71   12.37
   6   5   7   48.02    6.53
   6   5   7   36.51   10.32
   6   5   7   36.17   11.54
   6   5   7   53.37   10.57
   6   5   7   38.43    6.51
   6   5   7   62.14    9.96
  -7  -5  -7  343.05   34.84
   7   5   7  382.59   24.54
   7   5   7  350.91   27.17
   7   5   7  373.05   33.53
   7   5   7  351.90   30.07
  -8  -5  -7   -1.09   10.40
   8   5   7   10.88    3.27
   8   5   7   14.85    5.23
   8   5   7    2.73    7.18
   8   5   7   10.08    4.37
   9   5   7  244.29   21.45
   9   5   7  261.33   20.34
   9   5   7  260.68   17.43
   9   5   7  270.58   30.08
  10   5   7   34.35   14.31
  10   5   7   44.73    9.18
  10   5   7   35.64    7.39
  10   5   7   33.14    3.20
  10  -6  -7  118.28   21.93
  10  -6  -7  112.96   24.31
  10  -6  -7   74.19   61.98
 -10   6   7   67.25   13.17
 -10   6   7   30.26   53.12
 -10   6   7   99.69   15.12
   9  -6  -7   39.73   15.54
   9  -6  -7   26.09   11.67
   9  -6  -7   13.58   37.26
  -9   6   7   -8.39   28.10
  -9   6   7   37.55    9.21
  -9   6   7   35.26   10.28
   8  -6  -7  159.59   56.24
   8  -6  -7  130.57   22.33
   8  -6  -7  166.98   27.31
  -8   6   7  179.09   22.07
  -8   6   7  146.21   17.99
  -8   6   7  142.49   47.91
   7  -6  -7   74.17   18.45
   7  -6  -7  103.31   18.99
   7  -6  -7   72.72   37.94
  -7   6   7  135.93   39.74
  -7   6   7   70.48   13.63
  -7   6   7   56.75   10.74
  -7   6   7   88.61   18.13
   6  -6  -7  199.50   29.41
   6  -6  -7  290.00   57.58
   6  -6  -7  212.55   23.42
  -6   6   7  199.72   24.00
  -6   6   7  209.30   18.92
  -6   6   7  181.09   46.78
  -6   6   7  254.02   22.12
   5  -6  -7   84.54   17.27
   5  -6  -7   49.23   26.40
   5  -6  -7   80.16   14.77
  -5   6   7   49.69   10.85
  -5   6   7   84.68   16.90
  -5   6   7   55.40    9.60
  -5   6   7   57.33   11.57
  -5   6   7   63.00   30.40
   4  -6  -7  261.65   51.46
   4  -6  -7  332.21   27.45
   4  -6  -7  315.65   29.80
  -4   6   7  284.26   25.05
  -4   6   7  383.98   57.12
  -4   6   7  300.61   23.34
  -4   6   7  282.40   28.75
  -4   6   7  276.11   25.00
   3  -6  -7  184.15   17.45
   3  -6  -7  180.28   40.63
   3  -6  -7  167.32   17.79
   3  -6  -7  208.72   25.81
   3  -6  -7  144.22   13.82
  -3   6   7  145.30   22.84
  -3   6   7  136.19   34.67
  -3   6   7  138.50   15.51
  -3   6   7  161.06   14.76
  -3   6   7  167.40   16.62
  -3   6   7  153.62   22.01
   2  -6  -7  732.46   47.76
   2  -6  -7  676.94   49.50
   2  -6  -7  647.06   43.95
   2  -6  -7  807.12   75.04
   2  -6  -7  661.21   46.41
  -2   6   7  643.62   45.82
  -2   6   7  546.03   44.65
  -2   6   7  658.43   44.35
  -2   6   7  850.34   71.35
  -2   6   7  689.41   49.68
   1  -6  -7   73.06   11.48
   1  -6  -7   51.69   22.99
   1  -6  -7   51.16   10.65
   1  -6  -7   68.83   13.62
   1  -6  -7   58.30    8.75
  -1   6   7   57.80   10.45
  -1   6   7   63.68   10.39
  -1   6   7   55.74   12.51
  -1   6   7   45.00   19.99
  -1   6   7   66.57    9.54
   0  -6  -7  401.55   49.20
   0  -6  -7  466.45   30.24
   0  -6  -7  441.65   32.15
   0  -6  -7  414.63   30.86
   0  -6  -7  435.82   33.69
   0   6   7  464.24   31.56
   0   6   7  421.23   29.85
   0   6   7  384.72   46.33
   0   6   7  444.01   31.71
   0   6   7  382.91   33.23
  -1  -6  -7   15.36   15.89
  -1  -6  -7   27.39    7.90
  -1  -6  -7   16.56    5.50
  -1  -6  -7   12.68    4.56
  -1  -6  -7   27.70    5.41
   1   6   7   20.99    6.77
   1   6   7   33.57    7.47
   1   6   7   21.18   13.61
   1   6   7    7.63    4.28
   1   6   7   20.88    5.21
  -2  -6  -7  874.47   55.37
  -2  -6  -7  900.30   56.72
  -2  -6  -7  856.18   56.18
  -2  -6  -7  895.44   75.39
   2   6   7  880.98   71.76
   2   6   7  908.33   56.47
   2   6   7  925.33   58.61
   2   6   7  883.97   56.88
   2   6   7  888.89   60.20
  -3  -6  -7   50.64   18.02
  -3  -6  -7   68.45    9.01
   3   6   7   47.10    9.30
   3   6   7   58.75   11.08
   3   6   7   25.83   13.95
   3   6   7   63.54    8.75
   3   6   7   67.85    9.36
  -4  -6  -7  809.69   51.90
  -4  -6  -7  798.92   66.83
   4   6   7  848.51   54.92
   4   6   7  820.31   55.01
   4   6   7  822.46   62.78
   4   6   7  828.85   51.98
   4   6   7  783.36   51.55
  -5  -6  -7   24.54   13.16
   5   6   7   17.98    5.99
   5   6   7   15.97    6.08
   5   6   7   23.71    9.86
   5   6   7   24.90    5.64
   5   6   7   24.18    5.50
   5   6   7   28.58   11.15
  -6  -6  -7  400.31   38.05
   6   6   7  386.36   26.65
   6   6   7  400.49   31.71
   6   6   7  367.28   27.00
   6   6   7  388.90   30.96
   6   6   7  411.66   29.75
   6   6   7  422.70   34.90
  -7  -6  -7   21.85    8.99
   7   6   7   20.55    4.93
   7   6   7    5.66    7.64
   7   6   7   27.09    5.31
   7   6   7   18.43    5.54
   7   6   7   18.20    6.13
   8   6   7  297.78   24.81
   8   6   7  387.07   33.98
   8   6   7  322.75   22.93
   9   6   7   12.63    4.15
   9   6   7   10.13    9.01
   9   6   7    8.07    3.12
   9   6   7   14.81    5.70
  10   6   7  175.05   16.74
  10   6   7  183.57   15.59
  10   6   7  160.07   26.77
  10   6   7  188.75   13.76
   9  -7  -7  120.33   22.53
   9  -7  -7  119.13   25.32
   9  -7  -7   49.40   58.51
  -9   7   7  150.47   18.17
  -9   7   7  119.78   55.56
  -9   7   7  126.90   19.25
   8  -7  -7    4.22   41.81
   8  -7  -7   16.79   11.39
   8  -7  -7   10.00    8.69
  -8   7   7   19.89    7.00
  -8   7   7   35.01   31.66
  -8   7   7    7.60    7.38
   7  -7  -7  286.48   37.53
   7  -7  -7  194.51   53.37
   7  -7  -7  277.40   27.66
  -7   7   7  243.20   24.46
  -7   7   7  253.95   55.57
  -7   7   7  233.04   21.36
   6  -7  -7   93.23   17.19
   6  -7  -7   70.25   17.75
   6  -7  -7  102.28   41.39
  -6   7   7   62.94   13.24
  -6   7   7  157.23   43.18
  -6   7   7   59.61   10.63
   5  -7  -7  288.34   29.90
   5  -7  -7  284.76   56.28
   5  -7  -7  256.43   25.31
  -5   7   7  277.05   22.37
  -5   7   7  266.09   52.95
  -5   7   7  246.67   24.07
   4  -7  -7    4.48   26.34
   4  -7  -7   40.45   13.15
   4  -7  -7   31.00    9.55
  -4   7   7   20.93    6.30
  -4   7   7   32.55    8.09
  -4   7   7   35.82   27.64
  -4   7   7   42.05    9.71
   3  -7  -7  557.60   43.05
   3  -7  -7  515.97   65.30
   3  -7  -7  499.52   38.52
   3  -7  -7  472.40   38.32
  -3   7   7  568.09   65.70
  -3   7   7  549.43   37.65
  -3   7   7  466.28   46.59
  -3   7   7  489.47   37.51
  -3   7   7  499.52   35.78
   2  -7  -7  203.78   25.52
   2  -7  -7  174.55   18.02
   2  -7  -7  188.84   18.05
   2  -7  -7  199.89   43.29
  -2   7   7  145.37   36.28
  -2   7   7  158.59   17.15
  -2   7   7  171.11   16.30
  -2   7   7  169.86   15.47
   1  -7  -7  570.84   40.14
   1  -7  -7  581.82   43.23
   1  -7  -7  493.07   39.54
   1  -7  -7  550.66   40.10
   1  -7  -7  548.87   62.96
  -1   7   7  620.34   62.59
  -1   7   7  671.30   41.28
  -1   7   7  558.00   38.84
  -1   7   7  524.00   38.11
  -1   7   7  519.98   42.96
   0  -7  -7   37.39    9.66
   0  -7  -7   30.74    7.79
   0  -7  -7   30.74    7.17
   0  -7  -7   30.23    5.67
   0  -7  -7   10.00   17.84
   0   7   7   25.84    7.73
   0   7   7   26.96    6.35
   0   7   7   20.58   15.43
   0   7   7   24.98    7.13
   0   7   7   25.18    6.14
  -1  -7  -7  589.04   40.76
  -1  -7  -7  569.29   40.73
  -1  -7  -7  521.72   59.63
  -1  -7  -7  644.08   43.18
   1   7   7  634.55   41.38
   1   7   7  577.99   44.90
   1   7   7  645.13   42.43
   1   7   7  634.19   41.79
   1   7   7  725.13   63.21
  -2  -7  -7  122.35   11.92
  -2  -7  -7  130.35   11.05
  -2  -7  -7  143.61   12.14
  -2  -7  -7  113.98   28.15
   2   7   7  116.57   26.21
   2   7   7  118.30   12.18
   2   7   7  128.95   12.98
   2   7   7  118.04   12.76
   2   7   7  134.18   14.77
  -3  -7  -7  754.09   50.37
  -3  -7  -7  738.59   68.04
   3   7   7  796.72   51.70
   3   7   7  831.47   65.83
   3   7   7  779.36   53.56
   3   7   7  734.44   50.37
   3   7   7  816.63   50.73
  -4  -7  -7   87.51    9.45
  -4  -7  -7   56.49   19.23
   4   7   7   76.34   10.62
   4   7   7   90.75   12.48
   4   7   7  106.70   14.49
   4   7   7  122.49   21.49
   4   7   7   89.47   11.25
  -5  -7  -7  411.96   41.04
   5   7   7  429.41   31.54
   5   7   7  417.62   28.54
   5   7   7  386.82   36.28
   5   7   7  415.71   29.23
   5   7   7  425.65   31.48
  -6  -7  -7   30.84   11.82
   6   7   7   32.39    8.00
   6   7   7   40.06    8.41
   6   7   7   15.51    9.51
   6   7   7   33.09    6.10
   6   7   7   28.98    8.13
   6   7   7   24.83    5.73
   7   7   7  564.03   38.47
   7   7   7  541.51   35.43
   7   7   7  468.29   39.35
   7   7   7  543.90   36.76
   7   7   7  628.44   47.04
   8   7   7   10.63    3.99
   8   7   7   18.40    6.24
   8   7   7    6.19    8.55
   8   7   7   12.98    3.84
   9   7   7  172.21   14.17
   9   7   7  162.31   25.84
   9   7   7  151.53   15.29
   9   7   7  155.74   12.94
  10   7   7   -0.18    5.85
  10   7   7   -2.68    6.40
   9  -8  -7   28.21   68.78
   9  -8  -7   12.59   11.06
   9  -8  -7   16.36   11.46
  -9   8   7   30.19    8.45
  -9   8   7   30.20   41.52
  -9   8   7   24.25   10.32
   8  -8  -7   65.31   16.46
   8  -8  -7   88.13   20.82
  -8   8   7   81.96   15.52
  -8   8   7   70.64   12.45
  -8   8   7   44.11   48.57
   7  -8  -7   23.07   45.26
   7  -8  -7   11.11    8.67
   7  -8  -7    9.41    9.94
  -7   8   7   13.44    8.10
  -7   8   7   24.37   36.03
  -7   8   7   10.23    6.25
   6  -8  -7  172.55   23.43
   6  -8  -7  148.41   26.02
   6  -8  -7  105.22   49.01
  -6   8   7  112.49   18.66
  -6   8   7  118.87   16.22
  -6   8   7  218.38   49.48
   5  -8  -7   33.24   10.41
   5  -8  -7   34.93   28.14
   5  -8  -7   58.90   15.19
  -5   8   7   33.70   10.62
  -5   8   7   73.86   32.53
  -5   8   7   32.18    7.80
   4  -8  -7  270.09   29.49
   4  -8  -7  307.89   26.22
   4  -8  -7  231.24   56.25
  -4   8   7  293.27   56.14
  -4   8   7  301.93   25.89
  -4   8   7  262.87   23.98
  -4   8   7  268.98   23.14
   3  -8  -7   61.36   15.16
   3  -8  -7   48.70   11.00
   3  -8  -7   24.37   30.45
  -3   8   7   35.97    8.03
  -3   8   7   36.88    7.61
  -3   8   7   28.60    8.31
  -3   8   7   48.94   25.89
   2  -8  -7  548.22   74.25
   2  -8  -7  659.94   51.82
   2  -8  -7  732.52   49.17
   2  -8  -7  776.15   48.83
  -2   8   7  667.66   46.19
  -2   8   7  616.54   70.25
  -2   8   7  671.32   48.72
  -2   8   7  685.24   46.52
   1  -8  -7  154.05   21.31
   1  -8  -7  184.38   41.76
   1  -8  -7  153.52   15.51
   1  -8  -7  142.53   15.53
  -1   8   7  138.46   14.41
  -1   8   7  149.82   19.46
  -1   8   7  142.32   35.71
  -1   8   7  169.34   14.59
   0  -8  -7  607.05   42.36
   0  -8  -7  620.75   44.87
   0  -8  -7  621.99   41.37
   0   8   7  602.47   41.55
   0   8   7  744.46   68.14
   0   8   7  630.05   40.81
   0   8   7  512.81   42.15
  -1  -8  -7  104.76   13.73
  -1  -8  -7   72.43   10.72
  -1  -8  -7   92.17   27.93
   1   8   7   67.57   10.71
   1   8   7   95.98   15.85
   1   8   7   84.80   12.73
   1   8   7   84.11   10.48
   1   8   7   65.25   25.17
  -2  -8  -7  422.66   54.69
  -2  -8  -7  460.58   31.25
   2   8   7  504.32   52.76
   2   8   7  498.11   38.05
   2   8   7  502.46   34.74
   2   8   7  532.08   35.85
   2   8   7  500.34   33.67
  -3  -8  -7  140.53   30.60
   3   8   7   97.67   10.36
   3   8   7   70.14   11.31
   3   8   7   91.91   23.24
   3   8   7   88.56   11.85
   3   8   7   76.79   13.65
  -4  -8  -7  132.63   28.75
   4   8   7  180.29   29.22
   4   8   7  167.30   15.26
   4   8   7  181.04   17.56
   4   8   7  188.02   15.87
   4   8   7  153.93   15.42
  -5  -8  -7   14.98   14.19
   5   8   7   24.29    5.91
   5   8   7   22.86    6.72
   5   8   7   15.37   11.76
   5   8   7   11.00    5.26
   5   8   7   17.96    5.39
   6   8   7  355.25   26.29
   6   8   7  360.47   25.97
   6   8   7  355.37   26.31
   6   8   7  391.43   28.94
   6   8   7  377.25   27.63
   6   8   7  393.51   29.02
   7   8   7   18.57    4.49
   7   8   7   24.27    7.25
   7   8   7   27.41    6.34
   7   8   7   28.94    7.33
   7   8   7   15.42    9.93
   8   8   7  198.92   24.83
   8   8   7  223.55   18.38
   8   8   7  192.38   15.38
   8   8   7  218.76   17.90
   9   8   7    8.74    4.58
   9   8   7    6.44    6.09
   9   8   7   22.77    6.37
   9   8   7   17.12    9.95
   8  -9  -7   42.35   15.65
   8  -9  -7   20.42   11.35
  -8   9   7   31.00    8.75
  -8   9   7   43.77   12.09
  -8   9   7  -32.40   49.05
   7  -9  -7   98.92   18.02
   7  -9  -7   76.89   20.83
   7  -9  -7   41.46   56.35
  -7   9   7   86.83   51.96
  -7   9   7   88.59   13.98
  -7   9   7  103.52   17.78
   6  -9  -7    1.12    7.16
   6  -9  -7   20.83    8.58
   6  -9  -7   45.75   42.23
  -6   9   7   24.13   42.37
  -6   9   7    1.52    4.84
  -6   9   7   13.65    6.02
   5  -9  -7  186.18   24.04
   5  -9  -7  203.32   30.67
   5  -9  -7  211.39   61.34
  -5   9   7  181.38   18.22
  -5   9   7  265.62   59.43
  -5   9   7  178.53   24.35
   4  -9  -7   36.50    9.54
   4  -9  -7   52.50   38.82
   4  -9  -7   35.42   13.09
  -4   9   7   63.52   37.77
  -4   9   7   27.80    7.70
  -4   9   7   54.67   12.86
   3  -9  -7  185.22   52.79
   3  -9  -7  223.05   21.79
   3  -9  -7  247.57   32.19
  -3   9   7  212.35   50.63
  -3   9   7  259.06   24.07
  -3   9   7  218.46   20.40
   2  -9  -7    6.09    9.47
   2  -9  -7    3.25    4.85
   2  -9  -7    1.07   25.61
  -2   9   7    8.60    5.55
  -2   9   7   15.01   26.82
  -2   9   7    8.14    6.34
  -2   9   7   15.76    5.02
   1  -9  -7  371.10   63.45
   1  -9  -7  465.64   36.44
   1  -9  -7  394.73   29.55
   1  -9  -7  388.82   31.15
  -1   9   7  433.17   33.17
  -1   9   7  385.97   30.43
  -1   9   7  338.52   57.88
  -1   9   7  403.37   28.51
   0  -9  -7   36.42   10.74
   0  -9  -7   25.46    7.36
   0   9   7   37.19   25.66
   0   9   7   17.69    4.55
   0   9   7   20.07    6.68
   0   9   7   16.95    7.33
  -1  -9  -7  603.52   66.93
  -1  -9  -7  501.70   37.19
  -1  -9  -7  589.35   40.17
   1   9   7  580.63   39.52
   1   9   7  588.10   36.27
   1   9   7  528.00   40.17
   1   9   7  476.59   60.82
  -2  -9  -7   40.10   24.10
  -2  -9  -7   19.56    3.48
   2   9   7   15.62    6.47
   2   9   7   -9.00   18.86
   2   9   7   30.26    4.98
   2   9   7   23.01    6.50
  -3  -9  -7  398.86   52.02
   3   9   7  338.46   45.67
   3   9   7  373.79   25.72
   3   9   7  353.98   28.24
   3   9   7  374.54   28.71
   3   9   7  408.41   31.82
   4   9   7   27.18    7.46
   4   9   7   53.09   19.58
   4   9   7   36.52    9.41
   4   9   7   33.66    5.86
   4   9   7   21.29    6.44
   5   9   7  348.38   26.29
   5   9   7  327.01   32.05
   5   9   7  396.49   37.09
   5   9   7  335.71   28.56
   5   9   7  352.50   27.39
   6   9   7   28.73    6.40
   6   9   7   29.15    5.10
   6   9   7   19.23    6.02
   6   9   7   18.86    4.84
   6   9   7   23.27    7.62
   6   9   7   26.31    6.92
   7   9   7  174.60   16.49
   7   9   7  140.84   13.90
   7   9   7  165.02   16.28
   7   9   7  215.49   24.63
   8   9   7   14.23    4.17
   8   9   7   22.01    7.38
   8   9   7    8.36    4.99
   8   9   7    6.08    8.95
   8   9   7    3.56    5.14
   8   9   7    4.52    5.04
   7 -10  -7   23.81    9.25
   7 -10  -7    4.01   11.29
  -7  10   7   13.75    7.01
  -7  10   7   15.28    9.73
  -7  10   7   23.68   33.85
  -7  10   7   -3.36   43.77
   6 -10  -7  172.15   29.59
   6 -10  -7  152.90   21.30
  -6  10   7  164.18   24.16
  -6  10   7  151.38   19.02
  -6  10   7   61.36   59.57
   5 -10  -7   37.47   10.52
   5 -10  -7   81.20   19.53
   5 -10  -7   76.42   45.56
  -5  10   7   51.08   40.52
  -5  10   7   26.48   10.60
  -5  10   7   44.22   10.15
   4 -10  -7  153.08   28.06
   4 -10  -7  262.94   64.32
   4 -10  -7  201.69   20.86
  -4  10   7  190.47   19.32
  -4  10   7  250.63   24.09
  -4  10   7  131.59   46.02
   3 -10  -7   57.62   10.63
   3 -10  -7  -16.83   40.16
   3 -10  -7   46.09   14.61
  -3  10   7   59.82   11.26
  -3  10   7   76.95   15.13
  -3  10   7   23.30   37.68
   2 -10  -7  138.15   13.88
   2 -10  -7  104.51   44.85
   2 -10  -7  161.14   24.65
  -2  10   7   88.78   16.54
  -2  10   7  116.89   41.77
  -2  10   7   98.96   14.94
   1 -10  -7   35.59   11.95
   1 -10  -7   27.72    8.23
   1 -10  -7  -14.71   28.44
  -1  10   7    5.13    5.48
  -1  10   7    3.37    5.77
  -1  10   7  -11.23   25.28
   0 -10  -7  320.92   27.71
   0 -10  -7  296.35   24.06
   0 -10  -7  245.19   52.93
   0  10   7  281.23   24.05
   0  10   7  263.92   53.59
   0  10   7  289.92   26.33
  -1 -10  -7   24.14    6.13
  -1 -10  -7   15.54    6.46
   1  10   7   22.74    6.41
   1  10   7  -14.52   25.04
   1  10   7   15.81    7.75
   2  10   7  200.16   18.92
   2  10   7  241.33   43.64
   2  10   7  208.36   20.56
   3  10   7    6.25   21.77
   3  10   7   11.66   15.82
   3  10   7    2.76    4.74
   3  10   7    5.27    4.85
   4  10   7  290.85   23.36
   4  10   7  228.75   16.30
   4  10   7  338.07   35.70
   4  10   7  275.34   40.97
   4  10   7  331.07   24.34
   5  10   7   20.62    6.81
   5  10   7   18.05    3.93
   5  10   7   19.36    6.31
   5  10   7    4.99   11.86
   5  10   7   15.69   17.35
   5  10   7   14.74    3.26
   6  10   7  171.55   16.11
   6  10   7  177.78   17.87
   6  10   7  188.08   14.86
   6  10   7  163.61   18.22
   6  10   7  189.10   15.23
   7  10   7   25.06    7.07
   7  10   7    7.40    4.05
   7  10   7    4.58    5.81
   7  10   7   14.82    5.22
   7  10   7   17.51    5.99
   5 -11  -7  117.66   17.73
   5 -11  -7   84.99   21.65
  -5  11   7   63.75   36.22
  -5  11   7   92.43   61.80
  -5  11   7  168.99   24.90
  -5  11   7  100.39   16.05
   4 -11  -7   -3.29    8.01
   4 -11  -7    8.30    6.70
  -4  11   7    7.98   36.65
  -4  11   7   10.31    8.27
  -4  11   7   14.68   48.31
  -4  11   7   13.43    7.04
   3 -11  -7  130.95   22.38
   3 -11  -7   94.94   13.72
  -3  11   7   98.22   18.09
  -3  11   7  133.77   42.69
  -3  11   7  112.19   49.92
  -3  11   7  103.38   15.42
   2 -11  -7   33.67   12.01
  -2  11   7   -1.09   38.90
  -2  11   7   17.18    8.79
  -2  11   7   30.15   29.91
  -2  11   7   24.93    8.50
   1 -11  -7  148.35   21.59
   1 -11  -7  162.69   17.51
  -1  11   7  154.57   40.67
  -1  11   7  156.16   50.57
  -1  11   7  166.69   17.10
  -1  11   7  163.99   23.01
   0 -11  -7   23.47    6.97
   0 -11  -7   11.61    8.01
   0  11   7    4.55   32.78
   0  11   7   45.42   26.52
   0  11   7    6.39    6.59
   0  11   7   11.71    6.32
   1  11   7  177.49   48.47
   1  11   7  214.71   19.83
   1  11   7  181.53   20.30
   1  11   7  168.39   38.71
   2  11   7    1.42    4.64
   2  11   7  -33.17   20.28
   2  11   7    7.76    6.75
   2  11   7    9.19   29.41
   3  11   7  175.00   42.14
   3  11   7  203.66   20.11
   3  11   7  210.46   20.98
   3  11   7  225.50   35.65
   4  11   7   15.82    6.65
   4  11   7    9.12   25.51
   4  11   7   -0.39   16.24
   4  11   7   13.04    6.05
   5  11   7  204.01   18.58
   5  11   7  183.87   30.23
   5  11   7  183.42   18.93
   5  11   7  121.63   30.32
   6  11   7    0.64    4.33
   3 -12  -7   13.47   12.29
  -3  12   7   21.25   11.27
  -3  12   7  -13.11   37.13
  -3  12   7   21.11   55.62
  -3  12   7   23.88    9.13
   2 -12  -7  155.64   23.64
  -2  12   7  127.96   46.06
  -2  12   7  154.82   23.07
  -2  12   7  126.33   61.42
  -2  12   7  109.03   16.81
   1 -12  -7   98.26   17.52
  -1  12   7  -11.47   31.71
  -1  12   7   53.66   13.66
  -1  12   7   89.45   50.45
  -1  12   7   61.69   12.42
   0 -12  -7  170.04   18.89
   0  12   7  200.48   26.24
   0  12   7  123.26   51.05
   0  12   7  130.43   18.73
   1  12   7   49.16   10.78
   1  12   7   14.99   40.95
   1  12   7   34.33   11.39
   2  12   7  168.75   50.08
   2  12   7  204.34   21.17
   2  12   7  186.80   19.96
   3  12   7    6.34    5.61
   3  12   7   26.83    8.81
   3  12   7    9.49   37.01
   3   7  -8   81.52   18.34
  -3  -7   8   58.82   14.45
   2   7  -8   16.36   11.27
   2   7  -8  -25.94   38.95
  -2  -7   8  -15.60   34.20
  -2  -7   8   14.42   10.33
   1   7  -8  109.32   22.66
   1   7  -8   54.45   44.00
  -1  -7   8   67.30   16.57
  -1  -7   8  109.95   24.44
  -1  -7   8  105.39   40.30
   0   7  -8    3.45    9.35
   0   7  -8   -5.14   39.08
   0  -7   8   25.47   12.62
   0  -7   8   54.36   38.59
   0  -7   8   32.59   13.43
  -1   7  -8  104.84   48.11
  -1   7  -8  150.52   26.79
   1  -7   8  104.50   22.04
   1  -7   8  128.69   28.04
   1  -7   8   84.22   45.91
  -2   7  -8  -12.25   32.09
  -2   7  -8   32.33   12.88
   2  -7   8   15.67   11.72
   2  -7   8   21.04   36.56
   2  -7   8    2.04   10.76
  -3   7  -8   82.67   49.75
  -3   7  -8   77.44   19.73
   3  -7   8  123.00   28.95
   3  -7   8   87.20   21.12
   3  -7   8   13.24   44.89
   5   6  -8   41.78    6.87
   5   6  -8   51.22   13.37
   5   6  -8   45.11   13.45
   4   6  -8   55.55   42.68
   4   6  -8  122.08   13.77
   4   6  -8  155.39   25.85
   4   6  -8  133.84   20.20
  -4  -6   8  123.31   38.78
   3   6  -8   40.41   12.15
   3   6  -8   13.19    8.11
   3   6  -8   41.74    9.98
   3   6  -8   34.80   36.93
  -3  -6   8    2.36   27.50
  -3  -6   8   19.09    9.56
   2   6  -8  105.17   41.60
   2   6  -8  101.32   20.29
  -2  -6   8  113.59   22.08
  -2  -6   8  103.06   37.39
  -2  -6   8   84.79   17.62
   1   6  -8   62.87   15.72
   1   6  -8   68.17   34.17
  -1  -6   8   53.92   32.31
  -1  -6   8   19.47   11.24
  -1  -6   8   53.94   14.81
   0   6  -8   81.10   32.40
   0   6  -8  136.11   23.81
   0  -6   8  148.16   23.82
   0  -6   8  147.26   42.65
   0  -6   8  121.21   25.38
  -1   6  -8   50.27   15.32
   1  -6   8   35.60   15.76
   1  -6   8   34.41   13.54
   1  -6   8   75.31   35.05
  -2   6  -8  280.29   55.82
  -2   6  -8  198.00   30.39
   2  -6   8  219.00   36.47
   2  -6   8  146.21   26.54
   2  -6   8  281.17   56.84
  -3   6  -8   28.96   11.64
  -3   6  -8   44.56   38.81
   3  -6   8   18.81   12.41
   3  -6   8   59.87   32.07
   3  -6   8   32.63   16.46
  -4   6  -8  147.77   25.88
  -4   6  -8  107.22   45.18
   4  -6   8  150.79   27.11
   4  -6   8  104.48   42.66
   4  -6   8  117.14   27.23
  -5   6  -8   15.46    9.78
  -5   6  -8   10.31    5.83
  -5   6  -8  -24.82   39.36
   5  -6   8    3.46    8.16
   5  -6   8    4.62   11.73
   5  -6   8  -35.31   38.91
   6   5  -8   31.35   11.42
   6   5  -8    5.29    8.04
  -6  -5   8   -1.64    2.16
   5   5  -8  151.69   23.89
   5   5  -8  157.36   23.02
   5   5  -8  126.93   44.91
  -5  -5   8   99.55   33.01
   4   5  -8   46.85    8.01
   4   5  -8   44.96   34.22
   4   5  -8   74.01   16.80
   4   5  -8   29.91   10.50
  -4  -5   8   28.14   25.23
  -4  -5   8   30.79    9.70
   3   5  -8  178.37   27.08
   3   5  -8  178.41   23.58
   3   5  -8  149.04   44.45
   3   5  -8  177.92   17.42
  -3  -5   8  142.36   22.76
  -3  -5   8  203.93   22.77
  -3  -5   8  202.41   22.44
  -3  -5   8  185.53   42.41
   2   5  -8   39.89   13.06
   2   5  -8   27.56    8.28
   2   5  -8   22.52    8.54
  -2  -5   8   32.01   11.48
  -2  -5   8   25.02   24.61
  -2  -5   8   11.13    9.44
   1   5  -8  196.87   45.68
   1   5  -8  201.96   28.24
  -1  -5   8  182.27   24.39
  -1  -5   8  158.45   24.14
  -1  -5   8  143.96   37.33
   0   5  -8   52.43   29.22
   0   5  -8   46.53   14.23
   0  -5   8   35.05   24.21
   0  -5   8   44.46   13.52
   0  -5   8   36.30   13.83
  -1   5  -8  234.96   48.67
  -1   5  -8  253.02   28.09
   1  -5   8  249.45   32.97
   1  -5   8  221.81   42.84
   1  -5   8  228.20   35.93
  -2   5  -8   19.13   10.85
  -2   5  -8  -18.29   26.15
   2  -5   8    6.35   24.94
   2  -5   8   20.48   13.37
   2  -5   8   16.57   10.50
  -3   5  -8  223.48   48.09
  -3   5  -8  228.64   31.16
   3  -5   8  189.96   28.63
   3  -5   8  191.06   33.52
   3  -5   8  180.89   42.05
  -4   5  -8    0.64    8.49
  -4   5  -8  -20.74   25.64
   4  -5   8   -0.82   10.11
   4  -5   8   22.79   12.14
   4  -5   8   20.48   30.24
  -5   5  -8  157.03   26.60
  -5   5  -8  215.31   51.12
   5  -5   8  158.05   27.83
   5  -5   8  155.29   33.01
   5  -5   8  144.74   40.86
  -6   5  -8  -20.10   34.91
  -6   5  -8   26.60   11.92
  -6   5  -8   14.37    4.78
  -6   5  -8   15.43    4.93
   6  -5   8   20.55   38.62
   6  -5   8   13.17   14.90
   6  -5   8   -1.94    8.65
  -7   5  -8  162.60   25.70
  -7   5  -8   50.04   43.58
   7  -5   8  129.26   24.75
   7  -5   8  129.36   31.44
   7  -5   8  171.97   45.12
   8   4  -8   60.19   16.28
   8   4  -8   87.28   18.28
   7   4  -8   46.86   13.79
   7   4  -8   15.91   10.37
  -7  -4   8   23.05   28.40
   6   4  -8  144.41   22.65
   6   4  -8  113.31   19.79
   6   4  -8   76.13   39.89
  -6  -4   8   54.30   27.60
   5   4  -8  -10.69   27.67
   5   4  -8   17.68    9.97
   5   4  -8   13.09    9.24
  -5  -4   8    2.83   20.39
  -5  -4   8    8.84    6.44
  -5  -4   8    4.95    6.71
   4   4  -8  139.72   12.40
   4   4  -8  124.37   38.64
   4   4  -8  131.94   22.49
   4   4  -8  118.58   19.57
  -4  -4   8  132.64   19.70
  -4  -4   8  104.15   17.28
  -4  -4   8  210.49   39.41
   3   4  -8   22.07    6.10
   3   4  -8    5.75    6.52
   3   4  -8   19.48    9.14
  -3  -4   8   12.55    7.63
  -3  -4   8   -4.13   17.66
  -3  -4   8    6.28    7.08
  -3  -4   8   21.37    8.85
   2   4  -8  297.04   29.92
   2   4  -8  245.60   48.77
   2   4  -8  288.23   26.91
   2   4  -8  291.53   24.11
  -2  -4   8  303.50   48.21
  -2  -4   8  266.89   30.98
  -2  -4   8  287.72   29.01
  -2  -4   8  242.96   26.16
   1   4  -8   49.00   27.35
   1   4  -8   45.34   13.59
   1   4  -8   71.16   13.12
  -1  -4   8   48.81   14.30
  -1  -4   8   51.86   24.23
  -1  -4   8   37.88   11.79
   0   4  -8  329.69   31.63
   0   4  -8  250.70   47.49
   0   4  -8  278.04   27.01
   0  -4   8  299.55   32.36
   0  -4   8  273.24   47.01
   0  -4   8  357.24   30.68
  -1   4  -8   18.40    9.63
  -1   4  -8  -27.99   22.25
   1  -4   8   -4.23   20.48
   1  -4   8   20.05    9.80
   1  -4   8   19.78   12.18
  -2   4  -8  179.59   26.98
  -2   4  -8  286.67   48.72
   2  -4   8  142.64   33.35
   2  -4   8  168.49   29.78
   2  -4   8  184.12   26.76
  -3   4  -8   30.80   26.70
  -3   4  -8   31.16   10.84
   3  -4   8   24.04   23.49
   3  -4   8   32.85   14.22
   3  -4   8   56.35   14.43
  -4   4  -8  202.79   28.79
  -4   4  -8  182.15   43.06
  -4   4  -8  204.11   16.48
   4  -4   8  153.90   30.55
   4  -4   8  145.55   25.63
   4  -4   8  190.03   42.89
  -5   4  -8   -0.99    7.07
  -5   4  -8   25.18    6.03
  -5   4  -8   37.08   23.24
   5  -4   8    7.74   12.12
   5  -4   8   -3.48   24.83
   5  -4   8   12.99   10.47
  -6   4  -8  174.78   14.63
  -6   4  -8  228.92   30.75
  -6   4  -8  153.23   42.96
  -6   4  -8  167.74   14.49
   6  -4   8  146.33   43.32
   6  -4   8  181.37   34.30
   6  -4   8  140.34   25.77
  -7   4  -8   -0.32    1.20
  -7   4  -8    2.33    8.37
  -7   4  -8    7.32    2.56
  -7   4  -8  -15.24   23.98
   7  -4   8    3.21    8.72
   7  -4   8    8.44   34.17
   7  -4   8    2.45   10.42
  -8   4  -8  105.32   18.84
  -8   4  -8  -65.74   35.31
   8  -4   8   66.93   17.45
   8  -4   8   84.78   44.44
   8  -4   8   63.70   23.86
   8   3  -8   45.78   14.25
   8   3  -8   14.60   10.31
   7   3  -8  135.45   22.24
   7   3  -8  106.98   20.14
   7   3  -8   97.47   38.46
  -7  -3   8  104.41   31.24
   6   3  -8   71.66   32.81
   6   3  -8   53.55   14.19
   6   3  -8   60.41   14.82
  -6  -3   8   42.45    9.60
  -6  -3   8   28.90   22.51
  -6  -3   8   38.44    9.87
   5   3  -8  167.44   23.81
   5   3  -8  203.90   27.32
  -5  -3   8  162.56   18.53
  -5  -3   8  168.42   18.67
  -5  -3   8  196.95   37.37
   4   3  -8    8.57    7.10
   4   3  -8    0.44    7.02
   4   3  -8   19.90   22.47
  -4  -3   8   10.26    7.38
  -4  -3   8   22.16   18.18
  -4  -3   8    5.57    6.92
  -4  -3   8   11.71    5.25
   3   3  -8  370.60   26.67
   3   3  -8  368.97   33.65
   3   3  -8  420.37   61.61
   3   3  -8  379.59   32.14
  -3  -3   8  355.27   31.83
  -3  -3   8  338.44   29.95
  -3  -3   8  307.20   29.77
  -3  -3   8  386.17   46.71
   2   3  -8   15.55    8.09
   2   3  -8   40.42   21.76
   2   3  -8   41.36    7.89
   2   3  -8   43.81   12.01
  -2  -3   8   22.62    9.42
  -2  -3   8   17.73    7.88
  -2  -3   8   30.97   10.13
  -2  -3   8   31.85   19.92
   1   3  -8  346.27   27.94
   1   3  -8  356.04   45.84
   1   3  -8  374.04   32.77
   1   3  -8  351.32   30.54
  -1  -3   8  355.87   34.63
  -1  -3   8  352.34   30.46
  -1  -3   8  315.01   29.61
  -1  -3   8  402.79   47.23
  -1  -3   8  306.76   31.40
   0   3  -8    7.98    5.89
   0   3  -8    0.62    4.65
   0   3  -8  -18.53   19.25
   0  -3   8   14.71    9.63
   0  -3   8    9.80   18.19
   0  -3   8   -4.27    4.86
   0  -3   8    6.90    6.08
  -1   3  -8  204.85   40.52
  -1   3  -8  194.00   26.18
  -1   3  -8  149.85   15.50
  -1   3  -8  189.06   19.28
   1  -3   8  189.81   36.21
   1  -3   8  189.69   28.61
   1  -3   8  149.77   22.21
  -2   3  -8    7.44    7.97
  -2   3  -8   -3.69   13.91
  -2   3  -8    2.57    3.83
   2  -3   8    9.10   13.74
   2  -3   8   -1.29    6.11
   2  -3   8    6.32    9.02
  -3   3  -8  410.74   35.14
  -3   3  -8  348.94   54.40
  -3   3  -8  398.51   27.09
   3  -3   8  377.04   45.03
   3  -3   8  312.13   36.97
   3  -3   8  317.89   32.55
  -4   3  -8   72.72   25.88
  -4   3  -8   50.14    8.40
  -4   3  -8   42.06   12.93
   4  -3   8   38.20   12.83
   4  -3   8   44.97   17.19
   4  -3   8   84.27   28.74
  -5   3  -8  359.44   24.82
  -5   3  -8  369.96   56.16
  -5   3  -8  355.54   33.25
   5  -3   8  313.76   53.25
   5  -3   8  295.23   31.45
   5  -3   8  329.12   38.88
  -6   3  -8   -4.83   23.16
  -6   3  -8    9.50    3.45
  -6   3  -8    7.99    8.58
   6  -3   8   -2.04    6.60
   6  -3   8   18.77   22.59
   6  -3   8    8.04   12.05
  -7   3  -8  131.94   10.51
  -7   3  -8  191.11   26.11
   7  -3   8  128.52   40.92
   7  -3   8  111.72   21.72
   7  -3   8  164.66   32.99
  -8   3  -8  -14.20   32.54
  -8   3  -8   -0.36    6.86
   8  -3   8    8.80   12.23
   8  -3   8   -3.94    6.93
   8  -3   8    0.65   32.94
  -9   3  -8  124.76   19.58
   9  -3   8  131.49   24.66
   9  -3   8   98.93   27.99
   9   2  -8   16.68   10.43
   9   2  -8    7.02    9.12
   8   2  -8  126.34   21.31
   8   2  -8  145.76   45.27
   8   2  -8  106.80   20.92
  -8  -2   8   75.00   30.50
   7   2  -8   46.34   13.74
   7   2  -8   51.01   14.12
   7   2  -8   73.27   33.33
  -7  -2   8   41.83   26.06
   6   2  -8  236.01   70.09
   6   2  -8  221.96   29.75
   6   2  -8  183.26   26.64
  -6  -2   8  260.14   41.58
  -6  -2   8  221.65   21.36
   5   2  -8  168.94   22.84
   5   2  -8  103.55   35.19
   5   2  -8  136.20   22.08
  -5  -2   8  130.43   29.58
  -5  -2   8  121.31   17.18
  -5  -2   8  119.27   18.18
   4   2  -8  187.08   43.10
   4   2  -8  275.93   26.94
   4   2  -8  282.99   27.85
  -4  -2   8  256.97   41.35
  -4  -2   8  298.92   25.87
  -4  -2   8  248.87   20.78
  -4  -2   8  305.91   25.07
   3   2  -8  137.42   19.59
   3   2  -8   77.46   30.18
   3   2  -8   86.02   16.97
  -3  -2   8  136.98   27.79
  -3  -2   8  113.00   16.89
  -3  -2   8  103.71   15.68
  -3  -2   8  125.92   18.36
   2   2  -8  272.85   25.98
   2   2  -8  297.13   22.33
   2   2  -8  273.85   27.39
   2   2  -8  257.95   48.22
  -2  -2   8  242.65   24.90
  -2  -2   8  277.09   36.90
  -2  -2   8  287.07   26.02
  -2  -2   8  273.98   24.58
  -2  -2   8  258.50   26.21
   1   2  -8   55.94   23.64
   1   2  -8   61.72   14.73
   1   2  -8   74.88   11.94
   1   2  -8   65.93   13.28
  -1  -2   8   35.36   20.14
  -1  -2   8   47.59   12.92
  -1  -2   8   58.55   13.37
  -1  -2   8   90.74   15.24
  -1  -2   8   53.54   12.22
   0   2  -8  274.91   21.05
   0   2  -8  216.86   41.91
   0   2  -8  281.53   25.10
   0   2  -8  299.60   24.17
   0   2  -8  262.25   26.22
   0  -2   8  288.79   26.17
   0  -2   8  260.01   24.45
   0  -2   8  216.64   23.63
   0  -2   8  190.60   25.11
   0  -2   8  259.12   35.27
  -1   2  -8   58.84   23.73
  -1   2  -8   60.80    9.56
  -1   2  -8   83.70   16.65
  -1   2  -8   55.30   11.26
   1  -2   8   46.49   19.55
   1  -2   8   73.37   13.23
   1  -2   8   49.05   11.92
   1  -2   8   58.20   15.52
  -2   2  -8  218.03   17.83
  -2   2  -8  216.25   22.26
  -2   2  -8  189.55   38.63
  -2   2  -8  192.88   22.61
   2  -2   8  228.54   26.56
   2  -2   8  244.48   22.63
   2  -2   8  192.87   36.64
  -3   2  -8   19.26    5.24
  -3   2  -8    8.69    6.81
  -3   2  -8  -19.79   17.32
   3  -2   8   26.29    9.88
   3  -2   8   27.03   12.60
   3  -2   8   24.64   16.71
  -4   2  -8  306.97   22.43
  -4   2  -8  348.84   30.55
  -4   2  -8  317.89   43.08
   4  -2   8  276.42   28.49
   4  -2   8  337.91   40.69
   4  -2   8  272.07   33.06
  -5   2  -8    2.80   15.77
  -5   2  -8    3.23    3.24
  -5   2  -8    4.98    7.36
   5  -2   8    1.98   10.51
   5  -2   8   -2.06    5.94
   5  -2   8   -1.74   13.36
  -6   2  -8   80.48   32.16
  -6   2  -8  173.10   23.84
  -6   2  -8  161.44   12.15
   6  -2   8  179.02   34.89
   6  -2   8  114.98   21.21
   6  -2   8  157.42   31.22
  -7   2  -8   33.11   24.49
  -7   2  -8    6.77    8.25
  -7   2  -8    2.56    1.50
   7  -2   8   14.41   13.08
   7  -2   8   -0.06    7.23
   7  -2   8   13.78   20.90
  -8   2  -8   99.54   16.92
  -8   2  -8    9.60   27.77
   8  -2   8  106.59   26.10
   8  -2   8   94.99   19.04
   8  -2   8   79.50   33.43
  -9   2  -8   79.88   35.07
  -9   2  -8    5.76    6.59
   9  -2   8    9.73    9.76
   9  -2   8   -3.06   30.93
   9  -2   8   15.63   15.67
   9   1  -8  141.58   24.17
   9   1  -8  134.33   23.96
   9   1  -8   82.93   46.18
  -9  -1   8   97.42   36.34
   8   1  -8  120.16   22.89
   8   1  -8   91.19   39.54
   8   1  -8  105.92   20.33
  -8  -1   8   48.73   27.72
  -8  -1   8  116.76   11.94
   7   1  -8  313.32   30.79
   7   1  -8  277.29   29.43
   7   1  -8  246.11   50.38
  -7  -1   8  291.75   25.30
  -7  -1   8  255.52   46.56
   6   1  -8   68.69   33.22
   6   1  -8  103.52   19.53
   6   1  -8   56.16   15.37
  -6  -1   8   77.41   14.28
  -6  -1   8   81.29   12.30
  -6  -1   8   34.55   22.69
   5   1  -8  274.25   27.81
   5   1  -8  259.42   27.69
   5   1  -8  249.00   48.34
  -5  -1   8  300.26   24.04
  -5  -1   8  270.99   25.92
  -5  -1   8  311.57   46.60
   4   1  -8  122.76   19.57
   4   1  -8   99.78   30.55
   4   1  -8  133.58   20.44
  -4  -1   8  101.39   11.16
  -4  -1   8  190.56   34.56
  -4  -1   8   91.89   14.48
  -4  -1   8  110.67   17.72
   3   1  -8  526.49   43.30
   3   1  -8  564.84   43.19
   3   1  -8  537.92   58.42
  -3  -1   8  584.60   39.98
  -3  -1   8  554.39   54.18
  -3  -1   8  474.55   41.48
  -3  -1   8  553.36   42.52
  -3  -1   8  546.79   38.86
   2   1  -8   73.69   10.96
   2   1  -8   87.11   16.38
   2   1  -8   87.57   26.46
   2   1  -8   81.63   14.13
   2   1  -8   65.18   13.90
  -2  -1   8   71.60   15.09
  -2  -1   8   98.25   14.47
  -2  -1   8   79.53   14.57
  -2  -1   8   81.12   23.41
  -2  -1   8   69.17   12.86
   1   1  -8  760.46   49.45
   1   1  -8  663.30   70.09
   1   1  -8  817.02   54.56
   1   1  -8  768.21   55.00
   1   1  -8  857.31   51.07
   1   1  -8  703.13   49.98
  -1  -1   8  681.24   63.79
  -1  -1   8  819.23   52.29
  -1  -1   8  656.26   52.21
  -1  -1   8  685.92   53.56
  -1  -1   8  724.82   53.25
   0   1  -8  107.78   17.59
   0   1  -8  129.67   32.50
   0   1  -8  150.04   20.44
   0   1  -8  114.85   14.01
   0   1  -8  139.28   12.84
   0  -1   8  134.23   20.52
   0  -1   8  130.22   18.14
   0  -1   8   98.30   15.29
   0  -1   8  137.43   27.72
   0  -1   8  132.73   20.01
  -1   1  -8  928.18   81.62
  -1   1  -8  893.66   65.30
  -1   1  -8 1028.15   64.42
  -1   1  -8 1048.65   60.37
   1  -1   8  794.45   63.05
   1  -1   8  942.60   76.58
   1  -1   8  999.58   63.69
   1  -1   8  899.85   66.54
   1  -1   8  860.29   64.88
  -2   1  -8  114.17   18.15
  -2   1  -8  101.25   10.39
  -2   1  -8   87.99   15.39
  -2   1  -8   92.02   25.30
   2  -1   8  123.91   17.14
   2  -1   8   93.15   15.82
   2  -1   8  133.34   22.51
   2  -1   8   82.67   22.75
   2  -1   8  118.62   17.14
  -3   1  -8  507.19   39.91
  -3   1  -8  565.53   57.46
  -3   1  -8  477.69   33.40
  -3   1  -8  498.03   40.44
   3  -1   8  500.55   38.80
   3  -1   8  513.11   43.99
   3  -1   8  481.47   49.88
  -4   1  -8   22.16    8.61
  -4   1  -8   12.90    4.25
  -4   1  -8   -5.80   11.00
   4  -1   8   20.16    7.30
   4  -1   8    7.75   10.72
   4  -1   8   37.43   17.83
  -5   1  -8  528.67   40.00
  -5   1  -8  525.82   57.43
  -5   1  -8  484.49   32.13
   5  -1   8  536.61   40.43
   5  -1   8  541.50   54.05
   5  -1   8  391.86   42.56
  -6   1  -8   -2.78    4.63
  -6   1  -8  -10.52   18.13
   6  -1   8    9.79   10.51
   6  -1   8    9.08    7.61
   6  -1   8   16.96   16.35
  -7   1  -8  235.84   19.27
  -7   1  -8  242.43   45.64
  -7   1  -8  221.17   22.04
   7  -1   8  165.11   37.11
   7  -1   8  203.35   26.75
   7  -1   8  204.45   34.59
  -8   1  -8   -2.23    5.66
  -8   1  -8   -3.61    3.96
   8  -1   8   -6.81   21.86
   8  -1   8   -6.01    9.41
   8  -1   8    2.97    7.52
  -9   1  -8  148.44   15.59
  -9   1  -8   86.50   13.29
   9  -1   8  129.82   36.93
   9  -1   8  152.78   30.83
   9  -1   8  131.60   21.89
 -10   1  -8   -0.31   33.11
 -10   1  -8   -1.03    2.12
 -10   1  -8    3.34    4.34
  10  -1   8   -6.63    5.38
  10  -1   8    5.81   12.00
  10   0  -8   67.77   18.32
  10   0  -8   86.31   20.30
   9   0  -8   48.30   41.38
   9   0  -8   58.85   16.08
   9   0  -8   68.43   16.76
  -9   0   8   26.06   30.92
  -9   0   8   53.34    8.50
   8   0  -8  223.25   50.91
   8   0  -8  212.32   28.61
   8   0  -8  240.77   26.50
  -8   0   8  184.50   19.75
  -8   0   8  209.29   41.99
   7   0  -8   73.60   16.45
   7   0  -8   69.33   16.42
  -7   0   8   77.33   14.57
  -7   0   8   59.13   10.98
  -7   0   8   56.46   25.22
   6   0  -8  255.02   26.86
   6   0  -8  253.60   27.01
   6   0  -8  266.54   51.87
  -6   0   8  260.18   21.96
  -6   0   8  259.58   24.68
  -6   0   8  189.93   39.00
   5   0  -8   94.92   17.83
   5   0  -8   77.90   31.54
   5   0  -8   84.05   17.02
  -5   0   8  112.10   14.54
  -5   0   8  113.87   29.10
  -5   0   8   89.11   16.45
   4   0  -8  558.37   62.69
   4   0  -8  583.25   43.51
   4   0  -8  571.48   44.53
  -4   0   8  633.16   40.09
  -4   0   8  483.68   36.26
  -4   0   8  604.67   57.80
  -4   0   8  517.24   42.45
   3   0  -8  280.89   26.22
   3   0  -8  278.36   26.08
   3   0  -8  250.03   21.18
   3   0  -8  262.75   22.00
   3   0  -8  285.74   46.73
  -3   0   8  272.75   22.15
  -3   0   8  259.91   25.18
  -3   0   8  234.00   21.14
  -3   0   8  285.40   25.50
  -3   0   8  341.77   40.93
   2   0  -8  490.35   58.04
   2   0  -8  595.55   44.49
   2   0  -8  477.30   41.86
   2   0  -8  642.91   39.88
   2   0  -8  588.28   40.21
  -2   0   8  521.87   42.77
  -2   0   8  509.17   54.49
  -2   0   8  648.94   41.53
  -2   0   8  627.88   40.95
  -2   0   8  525.97   43.38
   1   0  -8   63.13    9.59
   1   0  -8   39.03   20.37
   1   0  -8   57.42   12.35
   1   0  -8   57.89   13.25
   1   0  -8   74.86   11.68
  -1   0   8  111.20   15.50
  -1   0   8   82.80   12.21
  -1   0   8   47.02   18.83
  -1   0   8   67.74   13.16
  -1   0   8   53.17   12.58
   0   0  -8  721.97   49.73
   0   0  -8  681.07   49.83
   0   0  -8  689.59   44.48
   0   0  -8  615.32   64.52
   0   0  -8  646.70   45.48
   0   0   8  703.09   46.83
   0   0   8  645.34   48.41
   0   0   8  635.20   48.18
   0   0   8  703.88   50.10
   0   0   8  693.96   60.29
  -1   0  -8  235.56   17.59
  -1   0  -8  223.88   39.20
  -1   0  -8  232.09   22.45
  -1   0  -8  225.28   20.68
  -1   0  -8  214.01   22.11
  -1   0  -8  217.75   18.64
   1   0   8  221.75   19.95
   1   0   8  215.81   20.95
   1   0   8  175.37   21.58
   1   0   8  227.90   29.80
   1   0   8  202.74   21.42
  -2   0  -8 1032.45   82.43
  -2   0  -8  930.81   62.40
  -2   0  -8 1025.11   64.07
  -2   0  -8  955.41   57.31
  -2   0  -8  877.03   58.86
   2   0   8  975.89   75.07
   2   0   8  882.58   61.81
   2   0   8  856.38   64.24
   2   0   8  856.92   62.36
   2   0   8  768.59   59.47
  -3   0  -8  114.26   10.05
  -3   0  -8   71.05   22.22
  -3   0  -8   85.55   15.14
  -3   0  -8  112.24   11.98
   3   0   8   84.21   21.70
   3   0   8  103.16   15.53
   3   0   8   89.53   14.29
   3   0   8  110.16   19.30
   3   0   8   92.79   15.57
  -4   0  -8  310.87   43.22
  -4   0  -8  338.05   24.07
  -4   0  -8  386.75   27.36
  -4   0  -8  343.93   29.75
   4   0   8  337.03   41.23
   4   0   8  381.28   35.58
   4   0   8  368.20   29.55
  -5   0  -8  135.31   10.71
  -5   0  -8  148.70   13.87
  -5   0  -8  150.47   16.61
   5   0   8  106.43   22.40
   5   0   8   93.00   24.90
   5   0   8  131.30   19.01
  -6   0  -8  200.57   18.73
  -6   0  -8  216.33   14.56
  -6   0  -8  222.06   38.64
  -6   0  -8  224.88   21.14
   6   0   8  202.96   32.02
   6   0   8  214.27   21.95
   6   0   8  281.83   37.49
  -7   0  -8   11.87    5.87
  -7   0  -8   16.85    7.62
  -7   0  -8   24.36   21.41
   7   0   8    0.89    5.75
   7   0   8   15.32   16.54
   7   0   8   10.46   12.42
  -8   0  -8  263.79   20.62
  -8   0  -8  275.75   22.28
  -8   0  -8  323.35   50.26
   8   0   8  243.66   42.12
   8   0   8  167.00   33.24
   8   0   8  293.88   26.83
  -9   0  -8    0.11    4.24
  -9   0  -8    1.78   24.44
  -9   0  -8   -2.58    1.59
   9   0   8    3.25   12.36
   9   0   8    2.58    7.11
   9   0   8  -16.34   23.77
  10   0   8  113.31   27.59
  10   0   8  128.67   22.55
  10  -1  -8   56.25   16.63
  10  -1  -8   22.72   12.30
   9  -1  -8  101.70   19.94
   9  -1  -8   80.96   18.21
   9  -1  -8  127.55   45.96
  -9   1   8   75.76   11.85
  -9   1   8   64.89   13.15
  -9   1   8  122.69   37.32
   8  -1  -8   33.56   11.57
   8  -1  -8   58.04   15.75
   8  -1  -8   94.14   39.59
  -8   1   8   49.23   10.59
  -8   1   8   47.66    9.60
  -8   1   8   46.90   28.47
   7  -1  -8  384.02   63.32
   7  -1  -8  289.08   30.90
   7  -1  -8  315.69   31.95
  -7   1   8  355.59   29.87
  -7   1   8  327.32   26.38
  -7   1   8  461.89   55.15
   6  -1  -8   -1.75   22.31
   6  -1  -8   43.99   13.63
   6  -1  -8   70.68   15.15
  -6   1   8   77.50   14.67
  -6   1   8   39.34   24.26
  -6   1   8   69.03   11.28
   5  -1  -8  448.25   37.63
   5  -1  -8  412.91   37.30
   5  -1  -8  424.72   56.78
  -5   1   8  457.98   33.20
  -5   1   8  404.55   36.35
  -5   1   8  389.92   52.01
  -5   1   8  528.59   30.02
  -5   1   8  426.80   30.18
   4  -1  -8   78.63   28.77
   4  -1  -8  108.36   19.51
   4  -1  -8  107.05   12.27
   4  -1  -8  118.63   18.39
  -4   1   8  114.22   11.04
  -4   1   8  114.85   13.02
  -4   1   8  132.04   21.69
  -4   1   8  115.84   29.21
  -4   1   8  128.28   19.25
   3  -1  -8  646.42   68.65
   3  -1  -8  707.02   51.24
   3  -1  -8  698.74   47.60
   3  -1  -8  752.39   52.91
   3  -1  -8  659.07   46.27
  -3   1   8  666.54   51.27
  -3   1   8  687.62   50.69
  -3   1   8  774.49   48.00
  -3   1   8  757.49   67.87
  -3   1   8  679.26   46.11
   2  -1  -8   22.84    5.55
   2  -1  -8   19.53    5.99
   2  -1  -8    9.79    7.81
   2  -1  -8   16.45    7.93
   2  -1  -8   38.94   19.62
  -2   1   8   25.78    6.53
  -2   1   8   21.60    8.00
  -2   1   8   17.33   12.13
  -2   1   8   14.84    6.88
  -2   1   8   18.17    6.45
   1  -1  -8  914.14   63.09
   1  -1  -8  947.00   67.42
   1  -1  -8 1117.76   63.06
   1  -1  -8  982.67   85.56
   1  -1  -8  905.58   66.37
  -1   1   8 1091.05   65.27
  -1   1   8  991.81   63.71
  -1   1   8  869.18   66.81
  -1   1   8 1007.46   67.17
  -1   1   8  949.34   79.94
   0  -1  -8   19.34    4.67
   0  -1  -8   19.85    6.02
   0  -1  -8   14.98    7.42
   0  -1  -8    5.47   11.20
   0  -1  -8   11.66    7.41
   0   1   8   14.35    7.07
   0   1   8   10.79   12.57
   0   1   8    6.79    6.46
   0   1   8   15.15    5.90
   0   1   8   23.14    7.63
  -1  -1  -8  775.58   46.13
  -1  -1  -8  700.80   50.78
  -1  -1  -8  745.65   47.51
  -1  -1  -8  726.47   66.44
  -1  -1  -8  760.38   51.60
   1   1   8  605.99   49.15
   1   1   8  735.51   50.88
   1   1   8  698.68   47.70
   1   1   8  613.76   50.00
  -2  -1  -8   19.48    4.71
  -2  -1  -8   15.56    7.29
  -2  -1  -8   16.46    5.78
  -2  -1  -8    8.88   13.59
   2   1   8   17.70    8.37
   2   1   8   16.27    5.47
   2   1   8   12.15    6.98
   2   1   8   13.52    6.80
   2   1   8   14.26    9.62
  -3  -1  -8  696.87   45.07
  -3  -1  -8  707.79   47.17
  -3  -1  -8  792.17   52.34
  -3  -1  -8  716.10   50.32
  -3  -1  -8  648.08   63.82
   3   1   8  715.92   48.34
   3   1   8  639.95   49.90
   3   1   8  791.64   54.46
   3   1   8  657.19   59.65
   3   1   8  729.87   51.24
  -4  -1  -8   66.83    7.22
  -4  -1  -8  109.12   27.06
  -4  -1  -8   79.86   11.15
  -4  -1  -8   76.04   13.26
  -4  -1  -8   90.83   15.34
   4   1   8   89.40   13.04
   4   1   8   70.03   19.47
   4   1   8   69.79   16.62
   4   1   8   77.57   13.40
   4   1   8   73.47   13.43
  -5  -1  -8  695.57   45.29
  -5  -1  -8  651.41   42.29
  -5  -1  -8  621.19   39.25
   5   1   8  618.85   56.80
   5   1   8  605.88   45.85
   5   1   8  617.84   44.46
   5   1   8  602.51   50.84
  -6  -1  -8  159.50   11.11
  -6  -1  -8  157.07   32.27
  -6  -1  -8  166.10   16.13
  -6  -1  -8  156.58   14.46
   6   1   8  161.54   29.81
   6   1   8  165.71   27.49
   6   1   8  174.28   17.90
  -7  -1  -8  523.73   56.66
  -7  -1  -8  450.35   31.05
   7   1   8  438.93   48.01
   7   1   8  465.56   35.97
   7   1   8  423.88   43.15
  -8  -1  -8   48.48    7.10
  -8  -1  -8   72.63    7.10
  -8  -1  -8   39.80   24.11
   8   1   8   53.52   21.02
   8   1   8   40.86   10.79
   8   1   8   59.42   18.59
  -9  -1  -8  260.05   45.33
   9   1   8  203.90   22.69
   9   1   8  210.49   35.17
   9   1   8  160.29   34.91
 -10  -1  -8    6.47   27.34
  10   1   8   10.65    9.14
  10   1   8   31.02   15.42
  10  -2  -8   86.67   20.63
  10  -2  -8   80.40   18.62
 -10   2   8   60.35   40.08
   9  -2  -8  -26.34   36.80
   9  -2  -8   15.54   10.12
   9  -2  -8   19.15   10.52
  -9   2   8   23.63    7.94
  -9   2   8   -6.67   28.11
  -9   2   8    8.18    7.97
   8  -2  -8  118.52   21.57
   8  -2  -8   93.67   41.84
   8  -2  -8   75.31   18.12
  -8   2   8   92.53   16.69
  -8   2   8   95.64   33.10
  -8   2   8  131.51   16.70
   7  -2  -8   33.16   25.69
   7  -2  -8   85.69   18.29
   7  -2  -8   82.77   16.70
  -7   2   8   63.27    6.15
  -7   2   8  102.91   32.74
  -7   2   8   61.23    7.86
  -7   2   8   82.20   12.70
  -7   2   8   76.63   14.97
   6  -2  -8  290.36   26.48
   6  -2  -8  235.36   26.13
   6  -2  -8  266.60   51.40
  -6   2   8  271.65   46.39
  -6   2   8  256.53   24.85
  -6   2   8  215.21   19.12
   5  -2  -8   79.54   17.06
   5  -2  -8   65.58   27.10
   5  -2  -8  120.97   19.59
  -5   2   8  133.20   19.96
  -5   2   8  128.84   31.90
  -5   2   8   95.97   13.21
  -5   2   8   85.11   10.89
   4  -2  -8  448.96   34.81
   4  -2  -8  367.18   28.61
   4  -2  -8  387.23   27.64
   4  -2  -8  368.21   56.25
   4  -2  -8  326.23   30.86
  -4   2   8  336.58   30.38
  -4   2   8  404.68   47.06
  -4   2   8  327.13   31.16
  -4   2   8  372.40   27.97
   3  -2  -8   64.99   25.87
   3  -2  -8  116.92   17.54
   3  -2  -8  100.88   10.54
   3  -2  -8  106.02   14.53
   3  -2  -8   78.50   15.62
  -3   2   8   95.70   27.29
  -3   2   8  120.27   17.14
  -3   2   8  102.03   11.15
  -3   2   8  128.48   14.78
  -3   2   8  103.36   17.22
   2  -2  -8  646.33   49.02
   2  -2  -8  688.78   45.13
   2  -2  -8  649.32   67.25
   2  -2  -8  656.10   49.88
   2  -2  -8  697.78   46.40
  -2   2   8  777.54   46.59
  -2   2   8  659.12   49.14
  -2   2   8  677.45   45.19
  -2   2   8  707.14   63.97
  -2   2   8  612.26   49.59
   1  -2  -8   35.31   18.90
   1  -2  -8   21.74    6.55
   1  -2  -8   17.69    7.04
   1  -2  -8   46.55    7.65
   1  -2  -8   27.30    9.13
  -1   2   8   39.95   10.20
  -1   2   8   29.65   15.70
  -1   2   8   22.70    5.88
  -1   2   8   24.47    8.26
  -1   2   8   35.50    8.11
   0  -2  -8  498.97   37.41
   0  -2  -8  591.29   58.06
   0  -2  -8  581.19   41.66
   0  -2  -8  557.46   36.63
   0  -2  -8  531.25   41.17
   0   2   8  518.86   40.44
   0   2   8  583.67   53.83
   0   2   8  535.21   41.33
   0   2   8  560.96   36.83
   0   2   8  571.20   39.79
  -1  -2  -8    5.66    3.11
  -1  -2  -8   -6.34   13.25
  -1  -2  -8    8.58    3.46
  -1  -2  -8    2.33    4.51
  -1  -2  -8    4.60    5.75
   1   2   8    5.60    4.82
   1   2   8    7.97    3.60
   1   2   8   11.61   10.74
   1   2   8    3.01    4.05
   1   2   8   -0.13    4.93
   1   2   8   12.26    6.14
  -2  -2  -8  728.60   50.89
  -2  -2  -8  709.07   47.73
  -2  -2  -8  704.82   66.61
  -2  -2  -8  762.42   46.58
   2   2   8  654.85   60.11
   2   2   8  746.76   48.39
   2   2   8  742.67   46.55
   2   2   8  652.67   50.76
   2   2   8  831.70   53.19
   2   2   8  715.00   51.12
  -3  -2  -8   64.87    7.12
  -3  -2  -8   54.28   10.90
  -3  -2  -8   99.22   11.98
  -3  -2  -8   88.67   24.59
   3   2   8   62.59   14.07
   3   2   8   69.81   13.15
   3   2   8   81.80   19.56
   3   2   8   68.89    8.69
   3   2   8   61.55   11.78
   3   2   8   88.50   12.10
  -4  -2  -8  814.51   51.26
  -4  -2  -8  841.37   53.17
  -4  -2  -8  895.38   55.91
   4   2   8  861.34   51.58
   4   2   8  820.02   66.17
   4   2   8  809.28   57.24
   4   2   8  780.84   56.85
   4   2   8  791.03   54.33
   4   2   8  842.94   60.55
  -5  -2  -8   29.02    7.17
  -5  -2  -8   31.64    4.56
  -5  -2  -8   30.42   19.28
  -5  -2  -8   21.92    5.55
   5   2   8   21.50   14.24
   5   2   8   30.89    7.76
   5   2   8   26.59    8.01
   5   2   8   24.79   10.63
  -6  -2  -8  644.48   61.51
  -6  -2  -8  585.27   38.73
  -6  -2  -8  556.67   35.64
   6   2   8  626.02   41.78
   6   2   8  569.65   47.76
   6   2   8  552.26   42.28
   6   2   8  594.45   53.63
  -7  -2  -8    3.61   18.00
  -7  -2  -8   22.19    3.80
  -7  -2  -8   24.52    4.03
   7   2   8   14.77   10.68
   7   2   8   27.87    8.16
   7   2   8   34.22   16.21
  -8  -2  -8  361.94   48.15
   8   2   8  283.32   34.20
   8   2   8  277.86   40.71
   8   2   8  317.52   26.80
  -9  -2  -8   34.50   26.61
   9   2   8    6.57   18.75
   9   2   8   29.70    8.98
   9   2   8   14.48   12.29
 -10  -2  -8  151.50   43.05
 -10  -2  -8  161.99   40.72
  10   2   8  128.27   27.60
  10   2   8  166.91   22.56
  10  -3  -8   33.49   12.77
  10  -3  -8   41.62   13.60
  10  -3  -8    2.88   46.90
 -10   3   8    7.64   39.70
 -10   3   8    1.02    1.26
 -10   3   8   43.41    9.75
 -10   3   8    1.51    5.84
   9  -3  -8  129.23   24.24
   9  -3  -8  159.45   46.41
   9  -3  -8   97.93   21.62
  -9   3   8  119.72   44.09
   8  -3  -8   -0.16    5.90
   8  -3  -8    5.87    9.47
  -8   3   8    8.10   25.43
  -8   3   8   24.41   10.77
  -8   3   8   14.46    5.64
   7  -3  -8  186.75   26.92
   7  -3  -8  179.01   27.30
   7  -3  -8  217.86   52.62
  -7   3   8  194.92   18.34
  -7   3   8  206.17   22.68
  -7   3   8  210.51   45.32
  -7   3   8  177.14   18.10
  -7   3   8  184.57   18.63
   6  -3  -8  120.65   20.64
   6  -3  -8  148.49   23.24
   6  -3  -8  124.91   34.54
  -6   3   8  244.45   46.78
  -6   3   8  155.72   18.23
  -6   3   8  123.90   14.58
  -6   3   8  148.09   15.94
  -6   3   8  177.70   18.97
   5  -3  -8  447.26   57.28
   5  -3  -8  509.85   40.44
   5  -3  -8  496.05   38.40
  -5   3   8  418.42   37.36
  -5   3   8  440.89   33.42
  -5   3   8  506.47   58.96
  -5   3   8  456.19   34.74
  -5   3   8  435.02   33.19
   4  -3  -8   55.94    8.93
   4  -3  -8   61.67   10.85
   4  -3  -8   63.06   12.85
   4  -3  -8   44.63   12.57
   4  -3  -8   40.05   22.98
  -4   3   8   38.84    9.53
  -4   3   8   53.54    9.23
  -4   3   8   57.89   23.09
  -4   3   8   41.71    8.72
  -4   3   8   84.58   15.22
   3  -3  -8  146.67   34.80
   3  -3  -8  210.34   18.06
   3  -3  -8  180.72   15.99
   3  -3  -8  177.14   19.98
   3  -3  -8  168.79   22.53
  -3   3   8  162.93   18.29
  -3   3   8  234.48   17.94
  -3   3   8  183.57   16.33
  -3   3   8  162.04   18.93
  -3   3   8  156.99   35.28
   2  -3  -8   44.52   11.01
   2  -3  -8   43.67    9.18
   2  -3  -8   57.05   23.77
   2  -3  -8   59.60    9.21
   2  -3  -8   51.47   12.36
  -2   3   8   58.38   11.84
  -2   3   8   53.71    9.93
  -2   3   8   64.29    9.37
  -2   3   8   43.42   20.09
  -2   3   8   43.53   10.91
   1  -3  -8   69.44   12.69
   1  -3  -8   72.03   24.80
   1  -3  -8   66.97   12.93
  -1   3   8   71.80   22.14
  -1   3   8   63.85   12.12
  -1   3   8   58.00   12.10
   0  -3  -8   77.63   22.57
   0  -3  -8   55.60   11.62
   0  -3  -8   77.50   10.99
   0  -3  -8   64.65   12.39
   0  -3  -8   55.01    8.30
   0   3   8   46.55   17.78
   0   3   8   59.55   11.99
   0   3   8   42.20    8.18
   0   3   8   65.61    8.74
   0   3   8   50.60   11.54
   0   3   8   64.32   11.98
  -1  -3  -8  982.11   84.97
  -1  -3  -8 1101.47   69.57
  -1  -3  -8  982.75   65.52
  -1  -3  -8 1088.08   69.84
  -1  -3  -8 1055.92   64.59
   1   3   8 1005.85   68.88
   1   3   8 1049.83   68.76
   1   3   8 1039.24   64.51
   1   3   8 1047.08   81.70
   1   3   8 1042.50   65.77
   1   3   8 1002.97   69.52
  -2  -3  -8    2.54    3.43
  -2  -3  -8   10.93    3.40
  -2  -3  -8    5.35   12.79
  -2  -3  -8    7.70    6.13
   2   3   8    4.76    3.14
   2   3   8   18.27    7.65
   2   3   8   10.74    4.74
   2   3   8   -5.62   10.50
   2   3   8    7.47    6.32
   2   3   8    8.00    5.26
  -3  -3  -8  732.68   47.43
  -3  -3  -8  768.04   46.47
  -3  -3  -8  718.95   49.45
   3   3   8  637.13   50.46
   3   3   8  710.74   51.34
   3   3   8  767.26   46.55
   3   3   8  844.77   54.15
   3   3   8  665.12   59.38
  -4  -3  -8   11.52    4.16
  -4  -3  -8   14.32   13.68
  -4  -3  -8   19.60    5.86
  -4  -3  -8   18.72    3.82
   4   3   8   16.30    5.69
   4   3   8   18.57   11.63
   4   3   8   18.47    7.37
   4   3   8    9.46    7.31
   4   3   8   23.10    7.07
   4   3   8   16.21    3.87
  -5  -3  -8  409.73   28.91
  -5  -3  -8  461.73   49.21
  -5  -3  -8  436.90   27.86
   5   3   8  510.21   38.54
   5   3   8  371.61   32.47
   5   3   8  372.55   39.30
   5   3   8  456.27   28.09
   5   3   8  357.97   32.98
   5   3   8  482.82   31.45
  -6  -3  -8   32.90    4.40
  -6  -3  -8   18.07   15.77
   6   3   8   22.41   12.11
   6   3   8   32.31    7.64
   6   3   8   32.47    8.53
   6   3   8   33.81    4.77
   6   3   8   29.06   10.95
  -7  -3  -8  467.54   53.30
   7   3   8  447.35   41.94
   7   3   8  463.60   34.20
   7   3   8  502.27   46.68
   7   3   8  479.88   36.04
  -8  -3  -8    6.65   21.12
   8   3   8    3.64    4.93
   8   3   8    6.20   13.72
   8   3   8    5.19    9.92
  -9  -3  -8  256.62   44.23
   9   3   8  212.27   33.34
   9   3   8  246.25   22.32
   9   3   8  223.03   29.71
 -10  -3  -8   15.95   26.91
 -10  -3  -8    9.18   24.92
  10   3   8   -1.29   10.09
  10   3   8    6.16    6.00
  10  -4  -8   69.34   18.36
  10  -4  -8   95.66   22.30
  10  -4  -8   55.68   54.25
 -10   4   8  143.42   50.46
   9  -4  -8  125.80   50.96
   9  -4  -8  102.02   21.79
   9  -4  -8  100.95   19.76
  -9   4   8   60.75   11.49
  -9   4   8   61.17   35.48
   8  -4  -8  203.91   30.30
   8  -4  -8  174.18   26.58
  -8   4   8  176.60   18.45
  -8   4   8  198.72   19.85
  -8   4   8  238.91   51.77
  -8   4   8  172.40   20.38
   7  -4  -8   26.94   24.95
   7  -4  -8   40.59   12.71
   7  -4  -8   49.94   14.71
  -7   4   8   57.98   30.86
  -7   4   8   46.66   10.26
  -7   4   8   34.85    8.93
  -7   4   8   47.10   11.33
   6  -4  -8  353.17   63.30
   6  -4  -8  394.07   35.55
   6  -4  -8  363.40   33.62
  -6   4   8  357.60   31.19
  -6   4   8  347.33   28.66
  -6   4   8  409.82   29.25
  -6   4   8  325.22   54.74
   5  -4  -8   52.64   26.54
   5  -4  -8   69.89   14.78
   5  -4  -8   57.70   15.78
  -5   4   8   89.30   13.77
  -5   4   8  101.69   16.32
  -5   4   8   74.19   26.22
  -5   4   8   76.27   11.99
   4  -4  -8  761.48   75.95
   4  -4  -8  652.22   51.39
   4  -4  -8  744.25   51.08
   4  -4  -8  642.48   46.78
  -4   4   8  685.66   46.28
  -4   4   8  703.86   70.78
  -4   4   8  641.80   50.51
  -4   4   8  654.28   45.05
  -4   4   8  639.87   49.11
   3  -4  -8    5.70    6.43
   3  -4  -8    6.53    4.07
   3  -4  -8   20.10   21.46
   3  -4  -8    8.57    5.50
   3  -4  -8   -1.45    4.10
  -3   4   8   15.02    5.11
  -3   4   8   -0.10   16.95
  -3   4   8    1.83    5.12
  -3   4   8   12.87    5.89
  -3   4   8    5.53    6.53
   2  -4  -8  514.55   57.56
   2  -4  -8  465.63   33.02
   2  -4  -8  515.51   35.44
   2  -4  -8  515.42   39.38
   2  -4  -8  512.41   37.83
  -2   4   8  455.93   36.46
  -2   4   8  492.95   34.43
  -2   4   8  500.93   33.45
  -2   4   8  338.32   48.34
  -2   4   8  467.12   37.99
   1  -4  -8  154.26   14.51
   1  -4  -8  154.48   32.19
   1  -4  -8  169.37   18.49
   1  -4  -8  123.73   12.74
   1  -4  -8  155.32   19.92
  -1   4   8  173.52   22.40
  -1   4   8  158.16   31.25
  -1   4   8  143.76   14.34
  -1   4   8  175.23   17.38
  -1   4   8  146.96   13.41
   0  -4  -8  932.12   57.26
   0  -4  -8  900.41   78.72
   0  -4  -8  893.17   61.21
   0  -4  -8  910.46   61.80
   0  -4  -8  892.93   58.35
   0   4   8  904.86   61.10
   0   4   8  869.17   75.63
   0   4   8  902.39   57.13
   0   4   8  947.17   58.27
   0   4   8  829.59   61.88
  -1  -4  -8  150.14   12.36
  -1  -4  -8  111.54   12.46
  -1  -4  -8  142.99   15.56
  -1  -4  -8  145.85   15.83
  -1  -4  -8  108.03   26.79
   1   4   8  144.77   13.27
   1   4   8  139.03   12.26
   1   4   8  138.54   18.39
   1   4   8  166.63   30.21
   1   4   8  149.83   19.94
  -2  -4  -8  733.66   47.83
  -2  -4  -8  763.86   50.62
  -2  -4  -8  741.49   47.04
   2   4   8  747.63   51.50
   2   4   8  700.68   61.91
   2   4   8  787.48   52.71
   2   4   8  648.77   51.10
   2   4   8  740.74   48.09
   2   4   8  752.37   47.11
  -3  -4  -8    3.01    2.50
  -3  -4  -8   -5.90   12.05
  -3  -4  -8   -3.33    3.08
  -3  -4  -8    4.37    3.37
   3   4   8    7.60    5.80
   3   4   8    7.32    6.26
   3   4   8    0.12    2.43
   3   4   8    3.55    4.58
   3   4   8   13.84   11.34
   3   4   8   -1.34    2.77
  -4  -4  -8  422.48   30.29
  -4  -4  -8  514.24   50.27
  -4  -4  -8  459.85   30.21
   4   4   8  396.41   33.91
   4   4   8  414.17   34.48
   4   4   8  481.59   43.45
   4   4   8  485.49   37.85
   4   4   8  524.35   30.78
   4   4   8  459.29   31.69
  -5  -4  -8   16.51   15.25
   5   4   8    4.49   10.60
   5   4   8   19.24    6.56
   5   4   8   16.87    3.78
   5   4   8   15.98    8.54
   5   4   8   14.42    6.99
  -6  -4  -8  471.32   50.71
  -6  -4  -8  478.09   30.79
   6   4   8  520.07   43.62
   6   4   8  501.55   41.26
   6   4   8  513.44   33.59
   6   4   8  421.51   34.94
   6   4   8  450.70   30.52
  -7  -4  -8    0.98   16.91
   7   4   8   31.18    7.86
   7   4   8   32.40    7.24
   7   4   8   24.33    4.01
   7   4   8   26.88   10.63
   7   4   8   18.37   13.47
  -8  -4  -8  200.20   35.69
   8   4   8  233.23   19.22
   8   4   8  239.63   20.92
   8   4   8  201.16   14.09
   8   4   8  211.29   28.28
   8   4   8  207.06   26.31
  -9  -4  -8    9.35   19.08
   9   4   8    2.48    4.78
   9   4   8    7.26    9.08
 -10  -4  -8  187.89   34.23
 -10  -4  -8  188.11   33.51
  10   4   8  212.58   20.11
  10   4   8  177.88   31.10
  10  -5  -8   46.98   14.94
  10  -5  -8   37.60   15.14
  10  -5  -8   13.64   61.18
 -10   5   8   16.17   44.96
 -10   5   8   50.20   11.70
   9  -5  -8  172.48   62.30
   9  -5  -8  116.85   21.78
   9  -5  -8  116.66   24.10
  -9   5   8  175.27   55.06
  -9   5   8  152.05   19.94
  -9   5   8  107.95   16.28
   8  -5  -8  102.40   21.47
   8  -5  -8   70.77   16.94
  -8   5   8  100.01   14.66
  -8   5   8   88.07   14.73
  -8   5   8   89.24   16.64
  -8   5   8  107.27   44.47
   7  -5  -8  151.56   22.97
   7  -5  -8  133.25   44.69
   7  -5  -8  125.75   22.90
  -7   5   8  123.52   41.37
  -7   5   8  152.58   16.43
  -7   5   8  109.22   15.71
  -7   5   8   98.89   18.61
   6  -5  -8   47.39   12.94
   6  -5  -8   65.79   28.94
   6  -5  -8   78.44   16.73
  -6   5   8   62.28   10.80
  -6   5   8   44.93   12.00
  -6   5   8   56.27   11.81
  -6   5   8   63.95   31.95
   5  -5  -8  305.14   29.50
   5  -5  -8  265.74   53.11
   5  -5  -8  326.67   32.18
  -5   5   8  296.37   24.94
  -5   5   8  450.38   56.62
  -5   5   8  323.75   30.09
  -5   5   8  346.59   27.11
   4  -5  -8   87.78   34.39
   4  -5  -8  157.73   20.89
   4  -5  -8  159.50   23.62
  -4   5   8  142.94   14.21
  -4   5   8  153.83   15.27
  -4   5   8  117.93   31.11
  -4   5   8  140.56   19.06
  -4   5   8  137.69   17.62
   3  -5  -8  459.75   32.34
   3  -5  -8  438.95   37.73
   3  -5  -8  460.09   36.64
   3  -5  -8  512.46   35.59
   3  -5  -8  504.49   60.99
  -3   5   8  393.83   36.85
  -3   5   8  425.12   32.10
  -3   5   8  458.75   55.70
  -3   5   8  489.36   34.27
  -3   5   8  473.03   36.07
   2  -5  -8   76.19   13.99
   2  -5  -8   84.59   15.88
   2  -5  -8  104.00   29.89
   2  -5  -8   96.18   10.35
   2  -5  -8  111.30   14.99
  -2   5   8   69.91   10.75
  -2   5   8  127.71   16.52
  -2   5   8  103.82   26.44
  -2   5   8  102.44   11.45
  -2   5   8  119.28   18.31
   1  -5  -8  873.44   58.98
   1  -5  -8  704.05   75.00
   1  -5  -8  883.37   57.64
   1  -5  -8  822.12   53.18
   1  -5  -8  866.91   55.48
  -1   5   8  759.34   52.84
  -1   5   8  815.35   54.40
  -1   5   8  840.80   74.96
  -1   5   8  819.88   56.45
  -1   5   8  869.67   59.46
   0  -5  -8   49.79   10.94
   0  -5  -8   58.95   11.49
   0  -5  -8   50.02    9.24
   0  -5  -8   52.42    8.33
   0  -5  -8   39.41   19.93
   0   5   8   51.75    9.19
   0   5   8   63.35   13.10
   0   5   8   58.89   10.68
   0   5   8   64.37   19.67
   0   5   8   52.62    8.44
  -1  -5  -8  369.17   47.42
  -1  -5  -8  446.91   34.06
  -1  -5  -8  433.33   33.93
  -1  -5  -8  429.89   31.43
  -1  -5  -8  468.97   30.71
   1   5   8  422.91   35.03
   1   5   8  509.60   31.24
   1   5   8  503.38   32.15
   1   5   8  399.01   33.35
   1   5   8  388.23   45.36
  -2  -5  -8   45.46   21.10
  -2  -5  -8   92.63   12.80
  -2  -5  -8   73.94   10.35
  -2  -5  -8   85.44   10.20
   2   5   8   70.23   20.14
   2   5   8   93.32   14.43
   2   5   8   88.19   10.48
   2   5   8   93.28   12.09
   2   5   8   87.29   14.97
  -3  -5  -8  441.10   28.87
  -3  -5  -8  364.63   46.03
  -3  -5  -8  452.18   29.43
  -3  -5  -8  444.21   29.88
   3   5   8  418.28   29.91
   3   5   8  457.19   29.63
   3   5   8  409.87   33.28
   3   5   8  401.53   42.81
   3   5   8  422.95   32.94
  -4  -5  -8   34.63   18.10
  -4  -5  -8   27.09    5.33
   4   5   8   26.26    8.16
   4   5   8   33.47    6.81
   4   5   8   35.84   10.46
   4   5   8   22.97   12.53
   4   5   8   37.50    9.03
   4   5   8   34.86    6.15
  -5  -5  -8  403.60   27.45
  -5  -5  -8  418.80   44.54
   5   5   8  409.42   28.41
   5   5   8  372.71   31.70
   5   5   8  369.51   30.78
   5   5   8  408.52   38.21
   5   5   8  458.30   36.34
   5   5   8  404.56   27.47
  -6  -5  -8   10.45   15.09
   6   5   8   27.85   12.85
   6   5   8   24.53    7.49
   6   5   8   36.52   11.67
   6   5   8   26.16    4.92
  -7  -5  -8  129.76   27.75
   7   5   8  147.84   12.00
   7   5   8  173.29   14.34
   7   5   8  150.88   15.95
   7   5   8  140.31   21.90
   7   5   8  144.00   23.08
  -8  -5  -8   14.85   15.41
   8   5   8   13.25    3.18
   8   5   8   16.93    5.70
   8   5   8   21.83   10.40
   8   5   8   35.46    8.48
   8   5   8    9.23   10.59
  -9  -5  -8  130.21   24.58
  -9  -5  -8  118.35   23.23
   9   5   8  174.35   18.06
   9   5   8  199.54   17.10
   9   5   8  196.60   12.55
   9   5   8  197.15   25.64
 -10  -5  -8   17.40    6.10
  10   5   8   18.33    7.10
  10   5   8   20.27   12.15
   9  -6  -8   80.07   56.59
   9  -6  -8   51.17   16.78
   9  -6  -8   53.55   16.04
  -9   6   8   54.39   44.91
  -9   6   8   63.75   13.65
  -9   6   8   62.19   12.22
   8  -6  -8  179.91   26.89
   8  -6  -8  172.83   28.86
  -8   6   8  131.79   47.56
  -8   6   8  164.16   17.42
  -8   6   8  142.97   20.17
   7  -6  -8  136.55   24.00
   7  -6  -8  145.56   52.70
   7  -6  -8  114.23   20.45
  -7   6   8   90.37   15.78
  -7   6   8  115.22   21.05
  -7   6   8  102.80   14.71
  -7   6   8  107.48   43.44
   6  -6  -8  358.41   31.97
   6  -6  -8  352.29   35.07
   6  -6  -8  287.42   61.44
  -6   6   8  330.46   61.70
  -6   6   8  317.28   26.95
  -6   6   8  394.74   29.89
  -6   6   8  316.99   32.49
   5  -6  -8  127.76   38.24
   5  -6  -8   95.36   16.90
   5  -6  -8   47.49   14.01
  -5   6   8   70.81   13.25
  -5   6   8   96.29   17.89
  -5   6   8   66.38   10.98
  -5   6   8   98.52   36.81
   4  -6  -8  431.32   67.48
   4  -6  -8  355.42   33.81
   4  -6  -8  358.02   31.22
  -4   6   8  328.12   32.26
  -4   6   8  431.92   30.22
  -4   6   8  322.69   26.81
  -4   6   8  350.77   29.72
  -4   6   8  330.22   55.35
   3  -6  -8  163.17   23.91
   3  -6  -8  123.74   20.76
   3  -6  -8  158.69   42.89
   3  -6  -8  144.03   19.50
  -3   6   8  136.03   13.37
  -3   6   8  152.05   36.28
  -3   6   8  140.82   14.81
  -3   6   8  116.52   16.79
   2  -6  -8  549.39   40.07
   2  -6  -8  542.87   62.00
   2  -6  -8  497.11   41.40
   2  -6  -8  499.57   38.18
  -2   6   8  581.77   60.41
  -2   6   8  442.95   43.49
  -2   6   8  573.26   38.41
  -2   6   8  532.72   36.32
  -2   6   8  490.96   38.08
   1  -6  -8   26.18   10.08
   1  -6  -8   36.87    9.31
   1  -6  -8   31.24    6.18
   1  -6  -8   40.34   22.29
   1  -6  -8   34.02    7.90
  -1   6   8   29.25   17.62
  -1   6   8   36.53    8.80
  -1   6   8   32.16    9.00
  -1   6   8   27.24    6.84
  -1   6   8   33.98    8.26
   0  -6  -8  208.77   19.79
   0  -6  -8  266.53   22.24
   0  -6  -8  219.60   22.26
   0  -6  -8  245.00   43.12
   0  -6  -8  239.84   18.78
   0   6   8  252.48   20.45
   0   6   8  240.88   19.15
   0   6   8  228.14   21.01
   0   6   8  247.00   23.38
   0   6   8  238.66   40.24
  -1  -6  -8    7.82    6.23
  -1  -6  -8    5.10    4.07
  -1  -6  -8    2.49    4.63
  -1  -6  -8   14.00    4.21
   1   6   8   10.03    4.29
   1   6   8   12.70    5.22
   1   6   8    1.42   12.14
   1   6   8    6.58    6.34
   1   6   8    5.29    5.01
  -2  -6  -8  596.77   39.44
  -2  -6  -8  525.23   37.11
  -2  -6  -8  595.24   59.32
  -2  -6  -8  562.53   37.69
   2   6   8  605.87   41.07
   2   6   8  514.79   41.39
   2   6   8  546.33   53.95
   2   6   8  591.87   38.03
   2   6   8  553.75   38.35
  -3  -6  -8  107.73    9.93
  -3  -6  -8   87.23    7.96
  -3  -6  -8   89.58   24.38
   3   6   8   89.08    9.49
   3   6   8   80.20   14.07
   3   6   8  111.48   15.59
   3   6   8   79.87   11.30
   3   6   8   79.93   21.54
  -4  -6  -8  822.92   71.85
  -4  -6  -8  846.74   53.87
   4   6   8  810.13   66.49
   4   6   8  840.56   54.09
   4   6   8  868.77   53.93
   4   6   8  859.21   57.42
   4   6   8  843.10   58.02
  -5  -6  -8  100.93    9.64
  -5  -6  -8  114.78   25.62
   5   6   8  106.16   15.44
   5   6   8  101.52   15.03
   5   6   8  104.21   10.48
   5   6   8   81.66   17.91
   5   6   8   95.67   11.29
   5   6   8  106.08   19.16
  -6  -6  -8  455.81   46.10
   6   6   8  449.10   34.26
   6   6   8  492.82   40.19
   6   6   8  433.86   30.65
   6   6   8  487.27   39.35
   6   6   8  432.26   34.97
   6   6   8  451.02   31.06
  -7  -6  -8   18.57   15.78
   7   6   8   29.59    7.99
   7   6   8   33.30    6.02
   7   6   8   40.98   10.87
   7   6   8   52.05   14.22
  -8  -6  -8  203.92   25.83
   8   6   8  277.25   29.54
   8   6   8  273.74   20.39
   8   6   8  288.41   23.27
   8   6   8  262.93   19.11
   9   6   8    5.46    4.38
   9   6   8   11.26    6.45
   9   6   8   12.92    9.81
   9   6   8   13.50    3.52
  10   6   8   76.12   19.63
  10   6   8   97.43   15.31
  10   6   8  143.50   13.18
  10   6   8  124.90    9.44
   9  -7  -8   79.56   19.24
   9  -7  -8   68.15   19.61
   9  -7  -8   43.28   57.33
  -9   7   8   47.24   12.13
  -9   7   8   -3.10   45.11
  -9   7   8   60.57   12.16
   8  -7  -8   11.89    9.21
   8  -7  -8   24.36   12.28
  -8   7   8   24.05    9.32
  -8   7   8  -15.84   37.26
  -8   7   8   15.27    6.52
   7  -7  -8  188.75   30.22
   7  -7  -8  111.07   21.03
   7  -7  -8  206.94   56.31
  -7   7   8  139.21   17.94
  -7   7   8  156.16   21.03
  -7   7   8  108.86   44.59
   6  -7  -8  168.18   26.46
   6  -7  -8  120.77   47.81
   6  -7  -8  138.86   22.08
  -6   7   8  169.02   47.76
  -6   7   8  173.75   18.68
  -6   7   8  144.32   15.62
   5  -7  -8  210.95   30.51
   5  -7  -8  233.84   24.00
   5  -7  -8  325.06   62.79
  -5   7   8  237.17   48.80
  -5   7   8  213.69   19.98
  -5   7   8  225.52   21.67
   4  -7  -8   41.26   14.00
   4  -7  -8   41.05   25.77
   4  -7  -8   42.54   11.17
  -4   7   8   42.24    8.98
  -4   7   8   30.09    8.67
  -4   7   8   52.40   11.02
  -4   7   8   45.28   30.38
   3  -7  -8  476.76   73.76
   3  -7  -8  585.60   42.90
   3  -7  -8  533.25   45.20
  -3   7   8  582.95   39.34
  -3   7   8  500.85   40.66
  -3   7   8  578.17   41.36
  -3   7   8  613.70   68.29
   2  -7  -8  185.47   18.76
   2  -7  -8  174.63   44.27
   2  -7  -8  212.04   22.80
   2  -7  -8  212.27   20.40
  -2   7   8  136.73   35.18
  -2   7   8  190.11   18.73
  -2   7   8  171.66   16.72
  -2   7   8  199.95   18.46
   1  -7  -8  347.58   58.37
   1  -7  -8  394.63   34.88
   1  -7  -8  406.73   32.17
   1  -7  -8  473.77   33.87
  -1   7   8  508.38   56.56
  -1   7   8  436.10   32.50
  -1   7   8  422.28   32.16
  -1   7   8  422.15   30.87
   0  -7  -8   16.35   20.79
   0  -7  -8   40.56   10.74
   0  -7  -8   37.72    8.89
   0  -7  -8   27.20    7.33
   0   7   8   42.13    8.96
   0   7   8   45.80   10.30
   0   7   8   33.15    8.20
   0   7   8   33.52   19.07
   0   7   8   32.33    7.26
  -1  -7  -8  103.63   30.58
  -1  -7  -8  141.56   15.73
  -1  -7  -8  158.21   13.77
   1   7   8  127.49   14.11
   1   7   8  105.95   28.52
   1   7   8   98.01   17.42
   1   7   8  168.27   15.12
   1   7   8  144.69   13.64
  -2  -7  -8   58.36   24.54
  -2  -7  -8   46.89    7.82
  -2  -7  -8   35.76    7.29
  -2  -7  -8   28.24    5.66
   2   7   8   48.75   20.19
   2   7   8   39.54    8.91
   2   7   8   40.94    8.28
   2   7   8   25.98    6.60
   2   7   8   48.94   11.08
  -3  -7  -8  524.40   59.64
  -3  -7  -8  639.97   42.39
   3   7   8  631.09   44.48
   3   7   8  629.58   42.53
   3   7   8  593.21   45.67
   3   7   8  661.49   42.51
   3   7   8  750.16   61.70
  -4  -7  -8   32.96    6.52
  -4  -7  -8   34.78   18.93
   4   7   8   56.93   18.29
   4   7   8   34.34    8.78
   4   7   8   37.31    9.12
   4   7   8   30.15    6.84
   4   7   8   33.63    6.97
  -5  -7  -8  435.74   46.70
   5   7   8  421.45   29.63
   5   7   8  409.22   29.67
   5   7   8  444.18   40.53
   5   7   8  432.50   33.35
   5   7   8  418.42   32.78
  -6  -7  -8   39.64   16.65
   6   7   8   19.77    7.08
   6   7   8   40.61   12.95
   6   7   8   26.33    6.09
   6   7   8   26.58    7.78
   6   7   8   24.46    5.74
   6   7   8   24.60   10.24
  -7  -7  -8  317.19   32.21
   7   7   8  405.82   26.84
   7   7   8  382.75   35.91
   7   7   8  336.23   27.34
   7   7   8  384.24   29.59
   7   7   8  394.53   26.25
   8   7   8   25.30    5.48
   8   7   8   22.69    7.65
   8   7   8   33.33   12.38
   9   7   8  163.67   17.03
   9   7   8  174.67   14.20
   9   7   8  155.17   26.67
   9   7   8  168.10   14.49
   8  -8  -8  172.62   25.82
   8  -8  -8  120.73   26.35
  -8   8   8  109.32   19.94
  -8   8   8  119.83   57.56
  -8   8   8  173.33   17.19
   7  -8  -8   56.94   49.71
   7  -8  -8   34.98   13.39
   7  -8  -8    9.77    9.36
  -7   8   8   11.55    8.29
  -7   8   8   30.75   44.80
  -7   8   8   32.75    8.51
   6  -8  -8  176.82   28.62
   6  -8  -8  193.57   58.78
   6  -8  -8  192.41   25.77
  -6   8   8  180.04   17.97
  -6   8   8  231.40   56.34
  -6   8   8  170.91   19.62
   5  -8  -8   36.33   13.91
   5  -8  -8   35.19   30.96
   5  -8  -8   33.19   10.37
  -5   8   8   37.34   34.04
  -5   8   8   30.72    9.39
  -5   8   8   17.51    6.18
   4  -8  -8  232.85   51.89
   4  -8  -8  189.03   23.87
   4  -8  -8  179.06   27.50
  -4   8   8  173.18   47.78
  -4   8   8  184.97   17.67
  -4   8   8  201.60   19.85
  -4   8   8  152.81   17.80
   3  -8  -8    1.71   20.02
   3  -8  -8   21.43    8.26
   3  -8  -8    1.27    8.46
  -3   8   8    5.12    4.69
  -3   8   8    7.66    4.96
  -3   8   8   24.66   27.68
  -3   8   8    4.78    4.93
   2  -8  -8  481.03   35.04
   2  -8  -8  300.27   58.41
   2  -8  -8  450.82   34.60
   2  -8  -8  389.87   36.73
  -2   8   8  463.51   32.82
  -2   8   8  444.14   59.34
  -2   8   8  394.57   33.30
  -2   8   8  422.76   31.74
   1  -8  -8   32.79   24.74
   1  -8  -8   16.86    7.34
   1  -8  -8   39.17   11.73
   1  -8  -8   48.59   10.12
  -1   8   8   24.11   21.45
  -1   8   8   41.03    9.62
  -1   8   8   47.14    9.01
  -1   8   8   35.60    8.03
   0  -8  -8  338.65   27.73
   0  -8  -8  417.17   31.59
   0  -8  -8  358.94   59.76
   0  -8  -8  362.51   28.04
   0   8   8  330.53   26.82
   0   8   8  447.51   53.67
   0   8   8  353.29   28.55
   0   8   8  331.35   26.67
  -1  -8  -8   37.94    7.53
  -1  -8  -8   42.75   23.40
  -1  -8  -8   15.01    7.37
   1   8   8   39.39    9.46
   1   8   8   52.36   23.13
   1   8   8   29.17    7.17
   1   8   8   46.42    8.64
  -2  -8  -8  572.56   63.33
  -2  -8  -8  529.23   36.01
   2   8   8  570.45   38.77
   2   8   8  490.92   41.88
   2   8   8  591.70   39.73
   2   8   8  645.17   61.54
   2   8   8  553.92   38.86
  -3  -8  -8   29.57   23.05
   3   8   8   29.72   18.60
   3   8   8   74.53   11.17
   3   8   8   54.62    9.47
   3   8   8   78.02   13.55
   3   8   8   72.70   11.29
  -4  -8  -8  362.30   44.73
   4   8   8  361.57   27.59
   4   8   8  358.68   29.40
   4   8   8  360.36   26.51
   4   8   8  318.22   25.94
   4   8   8  345.41   41.23
  -5  -8  -8   13.28   17.14
   5   8   8    7.75    4.33
   5   8   8    1.98    5.11
   5   8   8    2.66    3.77
   5   8   8   14.28   12.14
   5   8   8    1.61    5.17
  -6  -8  -8  331.10   37.41
   6   8   8  431.47   36.98
   6   8   8  329.42   28.45
   6   8   8  353.63   26.45
   6   8   8  331.00   30.62
   6   8   8  358.07   25.67
   6   8   8  344.64   28.72
   7   8   8    5.31    7.93
   7   8   8   19.49   11.07
   7   8   8   11.46    4.75
   7   8   8    8.34    6.51
   7   8   8    9.64    4.43
   8   8   8  156.27   17.71
   8   8   8  210.79   16.11
   8   8   8  185.33   16.70
   8   8   8  235.87   26.98
   9   8   8    6.42    6.37
   9   8   8   11.47    9.91
   9   8   8    8.21    4.42
  -8   9   8  -31.26   60.89
   7  -9  -8  121.97   25.60
   7  -9  -8  112.80   20.12
   7  -9  -8  125.81   63.89
  -7   9   8   86.98   52.20
  -7   9   8  103.56   19.19
  -7   9   8   96.14   15.11
   6  -9  -8   20.62    9.67
   6  -9  -8   15.08   11.84
   6  -9  -8   27.08   36.79
  -6   9   8    0.09   41.72
  -6   9   8   21.80    7.66
  -6   9   8   14.22    8.51
   5  -9  -8  110.51   53.43
   5  -9  -8  250.77   33.68
   5  -9  -8  211.91   22.71
  -5   9   8  227.92   60.19
  -5   9   8  183.31   21.40
  -5   9   8  188.58   19.12
   4  -9  -8   56.54   13.04
   4  -9  -8   80.17   46.04
   4  -9  -8   44.50   15.33
  -4   9   8   73.57   12.01
  -4   9   8   58.49   11.35
  -4   9   8   68.91   14.27
  -4   9   8   51.97   40.55
   3  -9  -8  247.28   32.28
   3  -9  -8  175.66   49.11
   3  -9  -8  251.29   23.80
  -3   9   8  241.15   24.06
  -3   9   8  254.96   55.59
  -3   9   8  239.95   21.73
  -3   9   8  257.01   21.88
   2  -9  -8   51.42   14.64
   2  -9  -8   50.30   10.62
   2  -9  -8   62.81   31.65
  -2   9   8   51.37   10.26
  -2   9   8   48.20   11.64
  -2   9   8   69.39   10.97
  -2   9   8   53.37   34.40
   1  -9  -8  429.96   35.25
   1  -9  -8  358.52   64.83
   1  -9  -8  402.50   30.73
   1  -9  -8  393.70   31.18
  -1   9   8  399.44   29.28
  -1   9   8  355.22   31.40
  -1   9   8  448.12   65.87
  -1   9   8  382.81   30.10
   0  -9  -8   70.95   11.45
   0  -9  -8  105.77   14.43
   0  -9  -8  100.70   16.96
   0   9   8   88.62   13.18
   0   9   8   95.98   12.22
   0   9   8  108.70   34.45
   0   9   8   86.40   14.28
  -1  -9  -8  346.02   61.78
  -1  -9  -8  486.52   36.27
   1   9   8  460.66   33.25
   1   9   8  529.24   35.88
   1   9   8  473.40   36.19
   1   9   8  580.69   61.93
  -2  -9  -8   47.45    6.65
  -2  -9  -8   44.64   30.54
   2   9   8   59.54   10.52
   2   9   8   43.95    9.48
   2   9   8   44.79   27.89
   2   9   8   63.05    9.25
  -3  -9  -8   97.05   32.87
   3   9   8  169.17   35.65
   3   9   8  165.62   14.88
   3   9   8  177.58   16.39
   3   9   8  181.80   17.02
  -4  -9  -8    4.29   20.58
   4   9   8    8.79    6.69
   4   9   8   11.94    5.73
   4   9   8   19.91    5.93
   4   9   8    9.11   18.70
   4   9   8   17.50    6.25
  -5  -9  -8  178.81   34.26
   5   9   8  229.01   20.56
   5   9   8  242.31   19.99
   5   9   8  271.38   23.58
   5   9   8  232.48   32.39
   5   9   8  245.88   20.88
   6   9   8   14.50    5.20
   6   9   8   22.72    7.82
   6   9   8   30.08    7.98
   6   9   8   16.30    5.72
   6   9   8   25.58   11.03
   6   9   8   22.01   10.03
   7   9   8  212.91   18.67
   7   9   8  200.74   19.70
   7   9   8  251.09   27.93
   7   9   8  159.12   18.64
   7   9   8  207.87   16.84
   8   9   8   26.29   11.90
   8   9   8   19.32    5.18
   8   9   8   11.73    5.05
   8   9   8    0.24    5.15
   6 -10  -8   65.95   14.98
   6 -10  -8   47.10   63.93
   6 -10  -8  113.83   24.33
  -6  10   8   50.73   46.64
  -6  10   8   77.21   13.11
  -6  10   8  105.38   19.30
   5 -10  -8   68.03   14.20
   5 -10  -8  -22.54   49.59
   5 -10  -8   37.59   14.75
  -5  10   8   40.75    9.29
  -5  10   8   39.08   11.25
  -5  10   8   76.38   45.68
   4 -10  -8  139.29   24.93
   4 -10  -8  172.88   56.03
   4 -10  -8  145.14   20.52
  -4  10   8  160.39   50.31
  -4  10   8  131.30   20.63
  -4  10   8  145.04   18.75
   3 -10  -8   47.48   10.93
   3 -10  -8  106.78   47.42
   3 -10  -8   47.30   14.02
  -3  10   8   75.92   43.89
  -3  10   8   34.73    9.30
  -3  10   8   60.90   14.53
   2 -10  -8  145.45   54.15
   2 -10  -8  184.93   26.49
   2 -10  -8  174.74   18.16
  -2  10   8  229.78   53.19
  -2  10   8  186.15   17.95
  -2  10   8  176.94   23.50
   1 -10  -8   24.13    6.98
   1 -10  -8   45.52   32.92
   1 -10  -8   21.75    6.34
   1 -10  -8   20.61    9.98
  -1  10   8   20.56    7.57
  -1  10   8   27.76    9.40
  -1  10   8   29.06    6.45
  -1  10   8   -1.13   29.40
   0 -10  -8  259.41   23.35
   0 -10  -8  271.82   58.50
   0 -10  -8  305.95   27.12
   0  10   8  289.72   21.02
   0  10   8  264.31   23.75
   0  10   8  255.98   52.12
   0  10   8  288.03   25.92
  -1 -10  -8   27.13    6.80
  -1 -10  -8   29.44    8.14
  -1 -10  -8    7.83   28.36
   1  10   8   26.64    7.76
   1  10   8   20.85    7.87
   1  10   8   21.61    4.79
   1  10   8   70.15   31.28
  -2 -10  -8  138.25   39.72
   2  10   8  138.35   15.69
   2  10   8  114.74   15.56
   2  10   8  136.77   11.39
   2  10   8  182.39   41.65
  -3 -10  -8   13.23   26.24
   3  10   8    9.48    5.68
   3  10   8   24.87   23.34
   3  10   8   17.45    4.35
   3  10   8   11.82    6.74
   4  10   8  219.01   39.35
   4  10   8  217.97   16.87
   4  10   8  246.26   20.80
   4  10   8  180.48   19.02
   5  10   8   38.79   15.67
   5  10   8   47.87    9.25
   5  10   8   53.57   21.11
   5  10   8   62.28   10.85
   6  10   8  148.87   18.63
   6  10   8  148.91   16.76
   6  10   8  196.20   20.67
   6  10   8  205.54   16.87
   7  10   8   22.01    6.63
   7  10   8   21.79    5.93
   7  10   8   17.81    6.25
   7  10   8    4.78    4.78
   5 -11  -8   97.27   22.72
   5 -11  -8   74.89   14.82
  -5  11   8   48.65   51.40
  -5  11   8   66.35   12.78
  -5  11   8  100.49   18.57
   4 -11  -8   52.01   11.43
   4 -11  -8   54.08   16.54
   4 -11  -8    6.13   46.16
  -4  11   8   29.30   11.75
  -4  11   8   62.38   12.21
  -4  11   8   58.73   42.86
   3 -11  -8  155.82   25.66
   3 -11  -8  145.97   19.01
   3 -11  -8    8.75   51.33
  -3  11   8  167.59   23.37
  -3  11   8  136.76   18.24
  -3  11   8  126.29   61.53
   2 -11  -8   50.64    8.13
   2 -11  -8  -64.91   40.17
   2 -11  -8   37.31   13.56
  -2  11   8   34.82   10.76
  -2  11   8   42.14   10.01
  -2  11   8   36.84   41.43
   1 -11  -8  184.45   26.09
  -1  11   8  156.92   19.66
  -1  11   8  119.64   46.58
  -1  11   8  184.57   24.31
   0 -11  -8   31.07   10.09
   0 -11  -8   23.18    7.32
   0  11   8   33.77   10.40
   0  11   8   57.52   37.61
   0  11   8   16.87    7.02
  -1 -11  -8  163.12   16.79
   1  11   8  236.53   50.73
   1  11   8  190.18   19.94
   1  11   8  164.22   20.25
   2  11   8   10.00   31.84
   2  11   8    7.89   22.64
   2  11   8    9.80    5.50
   2  11   8   20.67    7.65
   3  11   8  128.31   40.47
   3  11   8  224.29   20.46
   3  11   8  226.84   21.42
   3  11   8  160.72   33.34
   4  11   8   28.15   23.36
   4  11   8   14.00    7.06
   4  11   8   58.85   29.26
   4  11   8   31.53    7.95
   5  11   8  164.92   16.91
   5  11   8  179.84   18.02
   5  11   8  144.68   32.39
   3 -12  -8   -0.22    1.74
  -3  12   8   -0.91    6.21
  -3  12   8  -10.25   50.72
  -3  12   8   11.55   38.64
   2 -12  -8  131.23   21.12
  -2  12   8   74.11   41.07
  -2  12   8   24.48   51.94
  -2  12   8   90.03   17.18
  -2  12   8   80.66   14.40
   1 -12  -8   35.52   10.92
  -1  12   8   19.39    7.78
  -1  12   8   86.28   45.69
  -1  12   8   10.33   37.75
  -1  12   8   21.68    8.86
   0  12   8  114.47   48.33
   0  12   8  120.95   19.63
   0  12   8   84.06   14.33
  -1 -12  -8   -0.14    1.35
  -1 -12  -8    1.43    2.62
   1  12   8   -9.92   39.45
   1  12   8   12.43    7.64
   1  12   8   10.53    6.82
   2  12   8  185.45   20.08
   2  12   8  134.36   18.85
   2  12   8  137.49   47.52
   3  12   8   35.28   37.39
   3  12   8   18.10    7.63
   3  12   8   10.96    8.13
   3   6  -9   26.56   13.19
   3   6  -9   36.16    8.62
  -3  -6   9   37.17   10.83
   2   6  -9  187.05   56.17
   2   6  -9   94.56   21.29
  -2  -6   9   40.13   37.93
  -2  -6   9  121.06   22.40
  -2  -6   9  101.92   19.37
   1   6  -9   18.10   39.97
   1   6  -9   33.63   12.28
  -1  -6   9   44.43   34.77
  -1  -6   9   41.01   12.03
  -1  -6   9   41.26   13.91
   0   6  -9  142.91   25.52
   0   6  -9  152.18   54.10
   0  -6   9  155.32   26.55
   0  -6   9  153.63   29.68
   0  -6   9  111.80   41.16
  -1   6  -9    9.68   10.65
  -1   6  -9  -28.12   40.96
   1  -6   9   -9.37   35.78
   1  -6   9   37.20   15.34
   1  -6   9   14.21   11.28
  -2   6  -9   75.93   55.26
  -2   6  -9  110.87   23.07
   2  -6   9  129.34   24.47
   2  -6   9  118.78   27.28
   2  -6   9   93.95   45.16
  -3   6  -9    0.93    8.75
   3  -6   9    6.55   11.02
   3  -6   9    8.50   40.75
   3  -6   9   17.95   14.04
   5   5  -9   87.86   18.07
   5   5  -9  102.10   20.69
   4   5  -9   60.25   13.98
   4   5  -9   47.17   14.69
   4   5  -9   48.97   41.94
   4   5  -9   51.90    8.77
  -4  -5   9   58.04   13.83
  -4  -5   9   32.32    9.70
  -4  -5   9   14.28   32.46
   3   5  -9  119.74   22.87
   3   5  -9  101.68   17.86
   3   5  -9   85.46   41.70
   3   5  -9  125.38   14.43
  -3  -5   9  100.22   17.33
  -3  -5   9  127.37   40.26
  -3  -5   9  153.86   19.06
   2   5  -9   48.01   14.68
   2   5  -9   72.08   43.18
   2   5  -9   72.97   13.17
  -2  -5   9   40.12   12.55
  -2  -5   9   86.59   18.20
  -2  -5   9   56.35   31.93
   1   5  -9  179.66   27.82
   1   5  -9   88.90   41.87
  -1  -5   9  156.52   42.67
  -1  -5   9  105.38   21.40
  -1  -5   9  102.25   21.16
   0   5  -9   46.99   14.55
   0  -5   9   68.97   19.18
   0  -5   9   65.01   28.64
   0  -5   9   62.61   16.60
  -1   5  -9  183.25   27.76
  -1   5  -9  112.63   39.22
   1  -5   9  116.22   38.62
   1  -5   9  132.73   23.56
   1  -5   9  115.51   26.58
  -2   5  -9   32.07   12.41
  -2   5  -9   48.87   35.30
   2  -5   9  -10.62   30.52
   2  -5   9   29.72   15.92
   2  -5   9   17.55   11.94
  -3   5  -9  211.89   49.60
  -3   5  -9  159.63   27.47
   3  -5   9  128.14   24.20
   3  -5   9  142.72   30.50
   3  -5   9   71.49   43.04
  -4   5  -9   20.92   30.18
  -4   5  -9   28.16   12.39
   4  -5   9   32.01   37.37
   4  -5   9    7.56   12.58
   4  -5   9   15.71   11.02
  -5   5  -9   91.82   19.75
  -5   5  -9  -67.45   40.95
   5  -5   9   79.84   24.32
   5  -5   9   83.71   41.05
   5  -5   9   63.99   16.82
   7   4  -9   53.46   14.95
   6   4  -9   73.25   17.80
   6   4  -9  113.76   20.15
  -6  -4   9   75.40   36.16
   5   4  -9  -36.07   36.60
   5   4  -9   27.81   10.82
   5   4  -9   37.40   12.78
  -5  -4   9   31.48    9.43
  -5  -4   9   26.36    9.28
  -5  -4   9   35.88   27.78
   4   4  -9  150.13   24.92
   4   4  -9  124.70   20.95
   4   4  -9  148.45   44.52
  -4  -4   9  129.81   20.33
  -4  -4   9  138.59   38.14
  -4  -4   9  162.01   17.99
   3   4  -9   32.52   11.11
   3   4  -9   27.38   28.38
   3   4  -9   53.51   14.94
   3   4  -9   42.41    8.29
  -3  -4   9   57.46   13.50
  -3  -4   9   29.75   26.49
  -3  -4   9   37.20   11.08
   2   4  -9  328.60   31.83
   2   4  -9  319.98   25.59
   2   4  -9  298.38   29.10
  -2  -4   9  264.01   29.88
  -2  -4   9  249.83   28.00
  -2  -4   9  349.41   54.29
   1   4  -9   42.94   14.05
   1   4  -9   47.84   10.25
   1   4  -9   86.08   34.62
  -1  -4   9   63.91   17.16
  -1  -4   9   19.21   23.61
  -1  -4   9   41.12   12.89
   0   4  -9  134.86   41.89
   0   4  -9  221.78   30.30
   0  -4   9  150.55   26.96
   0  -4   9  156.29   24.55
   0  -4   9  214.84   43.00
  -1   4  -9   28.38   28.15
  -1   4  -9   40.24   13.61
   1  -4   9   43.55   26.53
   1  -4   9   38.57   14.95
   1  -4   9   38.68   11.97
  -2   4  -9  264.36   51.34
  -2   4  -9  245.28   26.92
   2  -4   9  211.74   34.71
   2  -4   9  193.90   45.05
   2  -4   9  221.18   30.83
  -3   4  -9   28.62   12.15
  -3   4  -9   91.81   37.01
   3  -4   9   36.58   15.87
   3  -4   9   80.14   31.31
   3  -4   9   31.30   12.75
  -4   4  -9  372.58   34.31
  -4   4  -9  300.31   58.17
   4  -4   9  244.93   34.35
   4  -4   9  264.23   53.75
   4  -4   9  270.21   41.97
  -5   4  -9   23.57    6.18
  -5   4  -9   20.27   11.75
  -5   4  -9   51.94   30.88
   5  -4   9    5.17    9.78
   5  -4   9   13.17   30.91
   5  -4   9    5.74   11.91
  -6   4  -9  166.41   25.93
  -6   4  -9    6.74   27.59
   6  -4   9  107.90   21.78
   6  -4   9   67.28   32.16
   6  -4   9  139.74   31.33
  -7   4  -9   17.82   11.44
  -7   4  -9   21.83   42.08
   7  -4   9   10.14   11.23
   7  -4   9  -31.51   28.88
   7  -4   9   14.12   13.74
   7   3  -9   90.03   19.06
   7   3  -9  108.08   21.11
  -7  -3   9   44.22    9.58
  -7  -3   9   60.15   28.98
   6   3  -9   13.95    9.93
   6   3  -9   37.77   37.58
   6   3  -9   35.09   12.74
  -6  -3   9   13.64    6.95
  -6  -3   9   33.25    9.16
  -6  -3   9   25.25   26.52
   5   3  -9  173.75   45.13
   5   3  -9  100.60   18.87
   5   3  -9  116.74   21.72
  -5  -3   9   88.69   15.96
  -5  -3   9   78.86   28.81
  -5  -3   9  112.35   17.43
   4   3  -9   38.53   11.52
   4   3  -9   34.79   12.60
  -4  -3   9   46.08   11.55
  -4  -3   9   45.60   11.79
  -4  -3   9   44.06    8.73
  -4  -3   9   28.02   23.94
   3   3  -9  243.15   50.02
   3   3  -9  203.96   26.61
   3   3  -9  223.61   24.56
  -3  -3   9  208.65   21.97
  -3  -3   9  193.42   22.38
  -3  -3   9  174.48   38.39
   2   3  -9   53.19   13.10
   2   3  -9   43.36   27.51
   2   3  -9   68.27   11.57
   2   3  -9   34.64   12.17
  -2  -3   9   32.30   10.78
  -2  -3   9   51.81   13.55
  -2  -3   9   66.48   23.79
   1   3  -9  253.07   22.96
   1   3  -9  179.44   45.70
   1   3  -9  270.88   26.00
   1   3  -9  261.22   27.87
  -1  -3   9  240.76   25.00
  -1  -3   9  243.88   45.05
  -1  -3   9  229.03   26.75
   0   3  -9   23.75   26.48
   0   3  -9   33.81    8.62
   0   3  -9   19.24   10.86
   0  -3   9   17.35   10.65
   0  -3   9   24.09   19.23
   0  -3   9    7.11    8.29
  -1   3  -9  166.83   24.53
  -1   3  -9  127.48   35.57
   1  -3   9  148.46   22.81
   1  -3   9  147.00   25.87
   1  -3   9  203.46   39.55
  -2   3  -9   23.24   25.28
  -2   3  -9   36.33   11.57
   2  -3   9   35.28   26.05
   2  -3   9   31.19   13.50
   2  -3   9   33.93   11.96
  -3   3  -9  239.71   26.45
  -3   3  -9  283.73   48.99
  -3   3  -9  264.42   22.51
   3  -3   9  213.87   42.85
   3  -3   9  221.77   36.21
   3  -3   9  242.78   27.23
  -4   3  -9   19.09   22.17
  -4   3  -9   39.71    7.70
  -4   3  -9   45.01   13.93
   4  -3   9   39.95   13.15
   4  -3   9   39.36   17.12
   4  -3   9   23.28   26.59
  -5   3  -9  177.64   15.25
  -5   3  -9  163.61   44.26
  -5   3  -9  240.33   30.34
   5  -3   9  205.63   46.17
   5  -3   9  171.31   33.57
   5  -3   9  139.77   24.35
  -6   3  -9  -26.05   22.62
  -6   3  -9   17.16    4.72
  -6   3  -9   31.56   11.69
   6  -3   9   -0.35    8.05
   6  -3   9   51.34   30.09
   6  -3   9   33.49   12.76
  -7   3  -9  145.32   22.85
  -7   3  -9   -3.47   34.30
   7  -3   9  111.46   27.51
   7  -3   9  113.35   22.59
   7  -3   9  100.64   43.69
  -8   3  -9   -1.67   38.44
  -8   3  -9    6.39    8.44
   8  -3   9    6.54   10.19
   8  -3   9    9.02   12.66
   8  -3   9   -5.93   38.20
   8   2  -9   79.76   18.09
   8   2  -9   73.73   18.03
   7   2  -9   62.45   39.06
   7   2  -9   36.68   12.37
   7   2  -9   38.58   12.92
  -7  -2   9   49.83   27.92
  -7  -2   9   54.00   10.52
   6   2  -9   78.71   16.92
   6   2  -9  106.71   20.60
   6   2  -9  125.92   42.36
  -6  -2   9   92.18   29.40
  -6  -2   9   77.92   14.27
   5   2  -9   20.63   10.65
   5   2  -9   24.38   10.78
  -5  -2   9   29.18    9.11
  -5  -2   9   -3.05   19.93
  -5  -2   9   32.78   10.43
   4   2  -9  189.94   44.73
   4   2  -9  138.14   22.16
   4   2  -9  139.61   23.71
  -4  -2   9  191.40   20.89
  -4  -2   9  189.92   16.41
  -4  -2   9  115.64   18.90
  -4  -2   9   98.16   30.73
   3   2  -9    5.81    7.43
   3   2  -9   13.11    7.99
   3   2  -9   12.96   24.08
  -3  -2   9   20.02    7.48
  -3  -2   9   23.54    8.67
  -3  -2   9   21.50    9.16
  -3  -2   9   -0.74   18.28
   2   2  -9  206.49   23.13
   2   2  -9  159.20   41.25
   2   2  -9  227.38   29.42
  -2  -2   9  197.32   22.53
  -2  -2   9  226.49   22.43
  -2  -2   9  236.42   41.17
   1   2  -9   53.95   26.14
   1   2  -9   57.50   11.07
   1   2  -9   42.60   12.77
   1   2  -9   56.05   13.38
  -1  -2   9   36.64   20.74
  -1  -2   9   57.62   13.27
  -1  -2   9   50.58   13.72
   0   2  -9  408.54   31.58
   0   2  -9  369.93   33.86
   0   2  -9  399.69   60.28
   0   2  -9  411.63   33.94
   0  -2   9  423.51   33.62
   0  -2   9  330.26   50.61
   0  -2   9  289.91   32.85
  -1   2  -9   11.30   22.79
  -1   2  -9   38.34    9.71
  -1   2  -9   62.41   14.71
   1  -2   9   39.52   22.34
   1  -2   9   40.53   11.74
   1  -2   9   40.91   14.49
  -2   2  -9  300.89   23.36
  -2   2  -9  330.34   51.42
  -2   2  -9  264.58   29.17
   2  -2   9  296.12   32.89
   2  -2   9  321.93   29.36
   2  -2   9  337.41   45.13
  -3   2  -9   18.24    5.37
  -3   2  -9   14.70    9.09
  -3   2  -9   -6.89   23.28
   3  -2   9   18.07    9.28
   3  -2   9   24.44   22.22
   3  -2   9   11.10   10.94
  -4   2  -9  189.52   26.67
  -4   2  -9  260.29   45.77
  -4   2  -9  197.32   15.84
   4  -2   9  155.16   35.99
   4  -2   9  141.10   28.63
   4  -2   9  194.91   26.52
  -5   2  -9   39.67   12.65
  -5   2  -9   38.17   26.47
  -5   2  -9   41.85    7.21
   5  -2   9   38.43   12.65
   5  -2   9   43.64   17.01
   5  -2   9   26.93   22.85
  -6   2  -9  206.88   26.98
  -6   2  -9  164.28   42.23
  -6   2  -9  162.39   13.19
   6  -2   9   87.97   34.91
   6  -2   9  178.92   32.72
   6  -2   9  129.34   22.80
  -7   2  -9   21.64   27.75
  -7   2  -9    7.10    2.13
  -7   2  -9   19.67    9.53
   7  -2   9    4.72   11.92
   7  -2   9   11.70   28.33
   7  -2   9   16.58   10.33
  -8   2  -9  123.95   20.12
  -8   2  -9   52.12   37.73
   8  -2   9  137.77   45.29
   8  -2   9  111.19   28.16
   8  -2   9   82.85   18.64
   9   1  -9  138.89   24.43
   9   1  -9  101.50   21.39
   8   1  -9   52.15   15.19
   8   1  -9   39.89   13.46
   8   1  -9   54.26   42.46
  -8  -1   9   61.56   31.67
  -8  -1   9   41.31    8.87
   7   1  -9  104.75   20.47
   7   1  -9   79.59   37.84
   7   1  -9  103.10   20.39
  -7  -1   9   88.46   14.71
  -7  -1   9   79.71   14.95
  -7  -1   9  120.23   36.41
   6   1  -9   13.95   30.69
   6   1  -9   43.06   13.72
   6   1  -9   34.34   11.43
  -6  -1   9   28.67    9.87
  -6  -1   9   10.45   23.62
  -6  -1   9   23.21    8.70
   5   1  -9  133.84   22.37
   5   1  -9  112.63   36.72
   5   1  -9  109.36   20.09
  -5  -1   9  133.92   20.79
  -5  -1   9  114.79   29.80
  -5  -1   9  165.03   17.33
   4   1  -9   76.97   34.28
   4   1  -9   69.45   15.57
   4   1  -9   72.82   16.36
  -4  -1   9   81.73   13.82
  -4  -1   9   58.84    9.97
  -4  -1   9   72.30   15.22
  -4  -1   9   43.53   19.80
   3   1  -9  300.18   29.60
   3   1  -9  289.17   52.67
   3   1  -9  298.44   29.68
  -3  -1   9  455.06   48.23
  -3  -1   9  303.09   26.77
  -3  -1   9  317.63   26.82
  -3  -1   9  295.15   29.28
   2   1  -9   44.55   12.13
   2   1  -9   43.41   13.41
   2   1  -9   55.51   28.05
  -2  -1   9   53.22   12.45
  -2  -1   9   18.44   19.39
  -2  -1   9   57.52   12.04
  -2  -1   9   45.21   14.10
   1   1  -9  266.14   26.65
   1   1  -9  230.03   44.68
   1   1  -9  223.14   24.37
  -1  -1   9  234.78   24.21
  -1  -1   9  274.46   42.25
  -1  -1   9  270.91   24.07
   0   1  -9   67.67   25.67
   0   1  -9  114.62   12.23
   0   1  -9  123.59   14.61
   0   1  -9  115.63   19.34
   0   1  -9   95.91   16.87
   0  -1   9  125.11   20.87
   0  -1   9   96.18   26.78
   0  -1   9  133.90   18.77
  -1   1  -9  642.76   46.72
  -1   1  -9  640.24   64.58
  -1   1  -9  599.73   43.51
  -1   1  -9  582.76   39.59
   1  -1   9  647.18   61.19
   1  -1   9  550.86   43.10
   1  -1   9  470.72   45.17
  -2   1  -9   53.38   13.56
  -2   1  -9   66.25    9.75
  -2   1  -9   67.13   27.18
   2  -1   9   67.91   21.81
   2  -1   9   65.19   17.10
   2  -1   9   83.90   14.84
  -3   1  -9  275.17   21.54
  -3   1  -9  310.16   28.81
  -3   1  -9  336.39   52.17
   3  -1   9  257.17   43.65
   3  -1   9  290.16   27.17
   3  -1   9  288.14   31.93
  -4   1  -9    1.71    3.05
  -4   1  -9    4.52    6.99
  -4   1  -9  -34.50   16.97
   4  -1   9    7.98   17.86
   4  -1   9   -0.55    3.76
   4  -1   9    0.16    8.61
  -5   1  -9  229.13   23.98
  -5   1  -9  223.18   16.80
  -5   1  -9  186.56   41.01
   5  -1   9  174.98   34.75
   5  -1   9  243.55   24.76
   5  -1   9  215.58   34.68
  -6   1  -9   15.26    9.17
  -6   1  -9   10.69    3.06
  -6   1  -9    8.33   23.49
   6  -1   9   15.14    9.66
   6  -1   9   15.35   21.33
   6  -1   9    3.25    8.15
  -7   1  -9   41.78   27.80
  -7   1  -9  154.40   20.73
  -7   1  -9   63.91    5.55
   7  -1   9  102.12   24.43
   7  -1   9  140.69   35.85
   7  -1   9   95.73   18.53
  -8   1  -9    8.03    6.51
  -8   1  -9  -11.56   24.52
   8  -1   9    5.81    7.47
   8  -1   9   -0.68   10.73
   8  -1   9    9.94   26.09
  -9   1  -9   90.84   14.22
  -9   1  -9  -24.88   34.13
   9  -1   9  110.31   28.18
   9  -1   9  109.86   20.59
   9  -1   9  140.38   41.25
   9   0  -9   52.95   16.63
   9   0  -9   86.22   19.73
   8   0  -9  153.85   24.54
   8   0  -9   80.94   18.92
   8   0  -9   84.77   44.28
  -8   0   9   97.26   13.40
  -8   0   9   49.11   31.75
   7   0  -9   48.51   14.14
   7   0  -9   65.55   16.55
   7   0  -9   35.76   31.99
  -7   0   9   60.71   11.03
  -7   0   9   59.08   26.23
  -7   0   9   44.81   12.12
   6   0  -9  167.46   54.81
   6   0  -9  243.73   25.89
   6   0  -9  185.78   27.76
  -6   0   9  196.26   22.24
  -6   0   9  196.38   40.29
  -6   0   9  197.31   19.80
   5   0  -9   49.59   29.94
   5   0  -9   82.47   16.44
   5   0  -9  102.17   19.07
  -5   0   9   55.89    6.32
  -5   0   9   68.56   27.34
  -5   0   9   86.71   15.99
  -5   0   9   83.31   13.90
   4   0  -9  370.09   57.66
   4   0  -9  346.54   32.13
   4   0  -9  364.73   33.20
  -4   0   9  323.50   25.59
  -4   0   9  357.54   28.22
  -4   0   9  364.20   31.36
  -4   0   9  283.87   47.22
   3   0  -9   90.99   16.99
   3   0  -9   95.70   17.60
   3   0  -9   34.28   26.72
  -3   0   9   91.74   14.59
  -3   0   9   94.11   26.39
  -3   0   9   64.84   12.14
  -3   0   9  119.29   19.14
   2   0  -9  205.57   23.59
   2   0  -9  196.55   25.54
   2   0  -9  216.34   43.54
  -2   0   9  194.87   22.28
  -2   0   9  225.59   21.01
  -2   0   9  163.51   33.46
  -2   0   9  222.37   20.46
   1   0  -9   42.41   10.82
   1   0  -9   27.59   10.85
   1   0  -9   25.71   17.08
   1   0  -9   45.88    7.99
  -1   0   9   61.85   12.32
  -1   0   9   77.06   12.34
  -1   0   9   17.01   16.41
  -1   0   9   27.25    8.60
   0   0  -9  550.90   33.56
   0   0  -9  494.87   38.46
   0   0  -9  468.62   56.44
   0   0  -9  459.82   38.44
   0   0  -9  439.30   36.02
   0   0   9  412.11   36.87
   0   0   9  429.46   34.76
   0   0   9  466.01   37.70
   0   0   9  426.56   49.14
   0   0   9  442.80   40.98
  -1   0  -9  172.37   18.94
  -1   0  -9  198.12   39.10
  -1   0  -9  189.40   16.03
  -1   0  -9  192.80   21.46
  -1   0  -9  186.97   17.59
   1   0   9  158.51   24.60
   1   0   9  235.08   37.73
   1   0   9  183.81   18.84
  -2   0  -9  324.43   51.17
  -2   0  -9  364.57   28.54
  -2   0  -9  340.81   23.66
  -2   0  -9  281.09   24.43
  -2   0  -9  312.89   29.06
   2   0   9  271.49   30.03
   2   0   9  303.65   26.83
   2   0   9  318.55   40.67
  -3   0  -9    4.44    6.97
  -3   0  -9    3.93   19.74
  -3   0  -9    7.48    5.12
   3   0   9   22.56   17.66
   3   0   9   18.32    6.47
   3   0   9    9.42    9.35
  -4   0  -9  202.10   18.01
  -4   0  -9  143.72   22.45
  -4   0  -9  187.90   14.99
  -4   0  -9  193.43   39.52
   4   0   9  206.55   25.97
   4   0   9  181.67   20.09
   4   0   9  180.59   33.42
  -5   0  -9    4.92    3.05
  -5   0  -9   -1.27    3.83
  -5   0  -9    3.61    6.36
  -5   0  -9   20.73   21.68
   5   0   9    2.36    6.03
   5   0   9   -4.10   10.70
   5   0   9   -1.00    5.62
  -6   0  -9  330.06   21.92
  -6   0  -9  355.45   30.02
  -6   0  -9  335.98   52.69
  -6   0  -9  355.00   26.01
   6   0   9  295.06   29.24
   6   0   9  309.11   42.57
   6   0   9  311.74   35.06
  -7   0  -9    4.03    1.02
  -7   0  -9   -3.59    3.63
  -7   0  -9   -3.91    5.25
   7   0   9   -2.48    7.56
   7   0   9    1.96   19.14
   7   0   9   -2.76    5.93
  -8   0  -9  168.38   16.27
  -8   0  -9  126.04   13.49
   8   0   9   85.85   32.33
   8   0   9  124.60   20.08
   8   0   9   91.88   24.87
  -9   0  -9    5.18    5.30
  -9   0  -9   -0.56    2.03
  -9   0  -9  -14.63   29.38
   9   0   9   -1.33   28.32
   9   0   9   13.37   14.90
   9   0   9    5.28    7.91
   9  -1  -9  100.73   20.77
   9  -1  -9   87.94   20.22
   9  -1  -9  120.39   51.68
  -9   1   9   63.10   11.69
  -9   1   9   28.32   36.18
   8  -1  -9   79.21   18.30
   8  -1  -9   81.08   19.33
   8  -1  -9  125.12   48.61
  -8   1   9   85.94   13.31
  -8   1   9   70.40   13.84
  -8   1   9   56.08   36.02
   7  -1  -9  248.87   31.70
   7  -1  -9  234.71   31.47
  -7   1   9  246.68   49.04
  -7   1   9  204.97   23.25
  -7   1   9  203.69   20.38
   6  -1  -9  180.47   45.50
   6  -1  -9  113.67   21.70
   6  -1  -9  131.85   22.47
  -6   1   9  121.73   17.20
  -6   1   9  181.23   19.14
  -6   1   9  165.76   40.04
   5  -1  -9  396.88   63.12
   5  -1  -9  434.21   37.61
   5  -1  -9  372.06   35.42
  -5   1   9  375.55   34.28
  -5   1   9  398.72   27.45
  -5   1   9  369.64   49.78
  -5   1   9  437.19   31.51
   4  -1  -9   75.05   15.67
   4  -1  -9   81.98   31.39
   4  -1  -9   97.92   18.20
  -4   1   9   66.31   11.92
  -4   1   9   56.48    9.58
  -4   1   9   88.58   26.28
  -4   1   9   82.73   16.00
   3  -1  -9  733.20   53.40
   3  -1  -9  706.27   53.81
   3  -1  -9  677.01   74.35
  -3   1   9  658.73   47.25
  -3   1   9  782.20   49.39
  -3   1   9  684.93   68.68
  -3   1   9  688.46   52.63
   2  -1  -9   40.40    7.82
   2  -1  -9   46.64   12.42
   2  -1  -9   50.86   12.87
   2  -1  -9   47.41   23.68
  -2   1   9   65.40   11.19
  -2   1   9   54.31   13.11
  -2   1   9   43.68    9.92
  -2   1   9   36.72   12.02
  -2   1   9   31.95   20.19
   1  -1  -9 1039.09   62.59
   1  -1  -9  918.41   63.06
   1  -1  -9 1045.23   68.32
   1  -1  -9  980.67   89.26
   1  -1  -9  988.58   68.18
  -1   1   9  839.83   79.46
  -1   1   9  978.95   65.10
  -1   1   9  965.06   63.60
  -1   1   9  971.95   67.26
  -1   1   9  926.09   67.74
   0  -1  -9  112.50   14.92
   0  -1  -9   89.49   16.25
   0  -1  -9   78.83   15.57
   0  -1  -9  102.35   12.61
   0  -1  -9  103.80   28.49
   0   1   9  105.82   16.90
   0   1   9  104.72   14.58
   0   1   9   64.40   20.47
   0   1   9  119.44   17.46
   0   1   9  107.49   17.62
  -1  -1  -9  803.81   56.05
  -1  -1  -9  795.97   55.81
  -1  -1  -9  726.12   73.97
  -1  -1  -9  762.02   49.70
  -1  -1  -9  758.33   51.42
   1   1   9  787.47   52.19
   1   1   9  634.28   54.20
   1   1   9  749.19   54.86
   1   1   9  854.49   69.44
   1   1   9  798.04   55.88
  -2  -1  -9   70.42    9.40
  -2  -1  -9   92.40   26.84
  -2  -1  -9   83.16   11.92
  -2  -1  -9   59.65   13.60
   2   1   9   49.41   12.05
   2   1   9   73.72   12.83
   2   1   9   46.44   17.94
   2   1   9   52.97   11.35
   2   1   9   68.64   15.01
  -3  -1  -9  576.93   38.46
  -3  -1  -9  632.94   64.59
  -3  -1  -9  582.54   40.67
  -3  -1  -9  583.47   44.22
   3   1   9  532.78   53.63
   3   1   9  593.20   42.08
   3   1   9  620.31   48.02
  -4  -1  -9   13.89   19.29
  -4  -1  -9   56.38    9.53
  -4  -1  -9   47.46   11.27
  -4  -1  -9   35.63    5.96
   4   1   9   31.21    8.78
   4   1   9   25.01   15.65
   4   1   9   40.60   13.26
  -5  -1  -9  465.32   34.77
  -5  -1  -9  525.49   58.39
  -5  -1  -9  547.79   38.42
  -5  -1  -9  517.74   32.05
   5   1   9  404.63   42.47
   5   1   9  492.76   37.66
   5   1   9  490.83   50.98
  -6  -1  -9    8.96    6.44
  -6  -1  -9   -0.70    4.27
  -6  -1  -9   -1.36    1.48
   6   1   9    3.79    9.04
   6   1   9   -9.13   15.60
   6   1   9   -0.44    5.15
  -7  -1  -9  200.22   17.95
  -7  -1  -9  252.22   20.64
  -7  -1  -9  221.09   13.46
  -7  -1  -9  223.11   42.24
   7   1   9  214.01   22.41
   7   1   9  179.08   37.38
   7   1   9  239.03   30.21
  -8  -1  -9    3.98    3.75
  -8  -1  -9   -0.11    3.94
  -8  -1  -9   24.53   26.51
   8   1   9    1.64    9.71
   8   1   9    2.49    5.98
   8   1   9   -7.17   20.03
  -9  -1  -9   37.63   29.36
   9   1   9  116.68   26.95
   9   1   9  183.25   40.02
   9   1   9  111.81   19.18
 -10  -1  -9  -29.26   32.55
  10   1   9    2.56    7.90
  10   1   9    0.50   11.05
  10  -2  -9   68.17   17.28
  10  -2  -9  103.96   22.43
 -10   2   9   69.05   11.37
   9  -2  -9   24.75   11.63
   9  -2  -9   30.09   12.24
   9  -2  -9   31.88   44.33
  -9   2   9   19.39    7.65
  -9   2   9    6.04    7.53
  -9   2   9    8.78   36.24
   8  -2  -9   94.31   20.27
   8  -2  -9   31.85   42.55
   8  -2  -9  111.75   21.36
  -8   2   9  114.32   42.05
  -8   2   9   84.01   20.72
  -8   2   9   99.13   14.85
   7  -2  -9  115.18   20.88
   7  -2  -9  107.35   20.78
  -7   2   9   67.16    5.90
  -7   2   9   75.57   32.05
  -7   2   9   88.69   13.88
  -7   2   9   75.61    7.06
   6  -2  -9  261.86   30.39
   6  -2  -9  329.33   32.77
   6  -2  -9  278.84   57.14
  -6   2   9  324.55   26.52
  -6   2   9  274.51   32.47
  -6   2   9  268.35   51.13
  -6   2   9  360.45   22.88
   5  -2  -9  156.08   38.85
   5  -2  -9  226.03   28.49
   5  -2  -9  188.45   27.51
  -5   2   9  249.24   20.90
  -5   2   9  211.39   17.04
  -5   2   9  213.58   22.90
  -5   2   9  191.85   39.26
   4  -2  -9  217.35   46.12
   4  -2  -9  309.83   28.51
   4  -2  -9  223.00   26.31
  -4   2   9  360.26   47.58
  -4   2   9  272.60   26.94
  -4   2   9  277.28   23.06
   3  -2  -9   91.46   16.79
   3  -2  -9  123.34   34.48
   3  -2  -9  169.56   23.20
  -3   2   9  125.05   31.43
  -3   2   9   91.82   13.73
  -3   2   9  112.70   18.66
  -3   2   9  131.59   13.40
   2  -2  -9  386.59   34.10
   2  -2  -9  413.98   54.29
   2  -2  -9  360.55   29.16
   2  -2  -9  336.26   31.84
   2  -2  -9  408.10   28.84
  -2   2   9  470.10   30.88
  -2   2   9  292.10   31.74
  -2   2   9  409.18   29.80
  -2   2   9  435.62   49.00
  -2   2   9  417.26   29.33
  -2   2   9  326.62   31.70
   1  -2  -9   85.30   12.76
   1  -2  -9   82.10   15.66
   1  -2  -9   87.28   16.03
   1  -2  -9   90.24   11.41
   1  -2  -9  160.27   34.44
  -1   2   9  114.71   17.10
  -1   2   9   97.70   14.50
  -1   2   9   61.59    9.93
  -1   2   9   79.78   12.87
  -1   2   9   96.51   25.79
  -1   2   9   71.48   14.58
   0  -2  -9  447.88   33.06
   0  -2  -9  380.39   35.68
   0  -2  -9  373.02   51.38
   0  -2  -9  480.87   37.39
   0  -2  -9  486.87   32.01
   0   2   9  474.77   50.30
   0   2   9  514.34   34.19
   0   2   9  379.27   35.87
   0   2   9  498.35   35.86
   0   2   9  394.75   35.57
   0   2   9  493.72   32.33
  -1  -2  -9   63.96   13.15
  -1  -2  -9   83.05   12.38
  -1  -2  -9   65.85    9.32
  -1  -2  -9   47.54   19.26
  -1  -2  -9   64.06   13.86
   1   2   9   42.43   10.91
   1   2   9   56.63    8.98
   1   2   9   57.77   18.31
   1   2   9   50.98   10.32
   1   2   9   80.63   14.99
   1   2   9   59.50   12.84
  -2  -2  -9  594.53   41.05
  -2  -2  -9  564.88   35.30
  -2  -2  -9  485.94   56.63
  -2  -2  -9  545.32   36.71
   2   2   9  501.34   36.89
   2   2   9  440.08   48.88
   2   2   9  545.11   35.13
   2   2   9  506.16   39.98
   2   2   9  472.79   39.90
   2   2   9  481.08   40.23
  -3  -2  -9  181.96   19.26
  -3  -2  -9  212.25   15.62
  -3  -2  -9  178.82   16.72
  -3  -2  -9  137.38   34.59
   3   2   9  227.82   18.99
   3   2   9  200.95   32.75
   3   2   9  190.82   15.44
   3   2   9  173.85   21.75
   3   2   9  198.21   27.06
  -4  -2  -9  579.31   61.70
  -4  -2  -9  558.76   39.32
  -4  -2  -9  577.67   37.54
  -4  -2  -9  620.70   42.61
   4   2   9  579.29   53.88
   4   2   9  494.66   44.92
   4   2   9  625.42   41.76
   4   2   9  597.23   47.58
  -5  -2  -9   99.43   29.87
  -5  -2  -9  108.69   14.57
  -5  -2  -9  100.34    8.74
  -5  -2  -9   89.75   10.08
   5   2   9   87.53   13.59
   5   2   9  106.77   23.67
   5   2   9   72.96   17.51
  -6  -2  -9  196.39   39.69
  -6  -2  -9  223.89   15.97
  -6  -2  -9  245.53   18.75
  -6  -2  -9  227.39   19.90
   6   2   9  242.45   29.12
   6   2   9  195.35   33.47
   6   2   9  280.90   22.73
  -7  -2  -9   29.95    6.22
  -7  -2  -9   38.07   23.87
  -7  -2  -9   26.29    5.15
   7   2   9   18.87   12.55
   7   2   9   35.70    9.64
   7   2   9   53.99   20.43
  -8  -2  -9  215.38   43.14
   8   2   9  153.65   29.32
   8   2   9  169.22   33.45
   8   2   9  218.89   21.61
  -9  -2  -9   -2.81   27.91
   9   2   9    0.30   11.62
   9   2   9    0.09    5.95
   9   2   9   14.51   23.00
 -10  -2  -9    4.96   32.01
  10   2   9  126.28   27.72
  10   2   9  126.96   19.68
  10  -3  -9   13.75   11.31
  10  -3  -9   60.05   16.67
 -10   3   9   41.34    9.98
   9  -3  -9   64.23   17.45
   9  -3  -9   89.02   20.83
   9  -3  -9   65.69   48.98
  -9   3   9   83.80   14.55
  -9   3   9   78.94   42.81
   8  -3  -9   68.40   41.09
   8  -3  -9   43.40   14.05
   8  -3  -9   49.19   15.42
  -8   3   9   67.93   36.19
   7  -3  -9  252.78   28.39
   7  -3  -9  277.32   57.99
   7  -3  -9  253.52   27.81
  -7   3   9  290.16   55.86
  -7   3   9  211.20   20.64
   6  -3  -9  101.75   19.61
   6  -3  -9  166.74   42.84
   6  -3  -9   97.48   20.64
  -6   3   9  116.13   16.41
  -6   3   9  131.91   14.59
  -6   3   9  132.11   16.94
  -6   3   9  173.09   42.19
   5  -3  -9  369.61   33.80
   5  -3  -9  350.26   32.19
   5  -3  -9  309.83   58.58
  -5   3   9  316.94   53.99
  -5   3   9  313.18   26.57
  -5   3   9  353.15   28.10
  -5   3   9  304.36   26.05
   4  -3  -9   44.29   12.44
   4  -3  -9   28.40   24.91
   4  -3  -9   41.35   13.41
  -4   3   9   24.77   18.67
  -4   3   9   57.16   10.49
  -4   3   9   58.52   10.56
   3  -3  -9  197.40   41.81
   3  -3  -9  229.12   23.62
   3  -3  -9  209.46   23.96
  -3   3   9  214.59   40.79
  -3   3   9  227.79   24.18
  -3   3   9  289.63   21.86
  -3   3   9  238.90   20.34
   2  -3  -9  137.32   19.43
   2  -3  -9  104.70   13.50
   2  -3  -9  132.71   13.70
   2  -3  -9  148.81   21.83
   2  -3  -9   84.13   30.17
  -2   3   9   83.13   16.41
  -2   3   9  101.48   29.33
  -2   3   9   83.74   13.47
  -2   3   9  155.63   14.88
  -2   3   9  164.62   16.64
  -2   3   9  100.54   13.68
   1  -3  -9  653.44   67.82
   1  -3  -9  665.93   45.18
   1  -3  -9  715.90   51.15
   1  -3  -9  703.47   47.16
   1  -3  -9  795.17   51.66
  -1   3   9  725.17   50.40
  -1   3   9  566.02   49.49
  -1   3   9  756.35   48.48
  -1   3   9  559.26   44.56
  -1   3   9  711.11   46.51
  -1   3   9  692.96   65.92
   0  -3  -9   72.71   11.52
   0  -3  -9   57.99   12.40
   0  -3  -9   84.30   28.85
   0  -3  -9   69.51    9.34
   0  -3  -9   83.87   15.32
   0   3   9   50.60    9.53
   0   3   9   36.92   17.22
   0   3   9   43.70   10.89
   0   3   9   75.21   13.11
   0   3   9   58.84    9.27
   0   3   9   62.17   13.14
  -1  -3  -9  892.00   58.07
  -1  -3  -9  752.46   75.02
  -1  -3  -9  880.43   58.37
  -1  -3  -9  814.95   53.63
  -1  -3  -9  829.78   52.27
   1   3   9  737.42   57.39
   1   3   9  724.65   68.68
   1   3   9  837.10   52.37
   1   3   9  809.34   56.57
   1   3   9  793.81   57.09
  -2  -3  -9   87.06   10.30
  -2  -3  -9   21.62   17.03
  -2  -3  -9   67.14   13.23
  -2  -3  -9   95.72   12.78
   2   3   9   87.34   14.49
   2   3   9   86.02   15.43
   2   3   9   61.21   19.67
   2   3   9   84.05   15.23
   2   3   9   76.94    9.91
  -3  -3  -9  472.78   30.00
  -3  -3  -9  429.84   30.91
  -3  -3  -9  459.50   34.14
  -3  -3  -9  349.89   54.94
   3   3   9  407.77   43.99
   3   3   9  470.05   32.36
   3   3   9  436.00   29.75
   3   3   9  385.90   34.44
   3   3   9  488.26   37.52
   3   3   9  388.78   34.28
  -4  -3  -9   90.74   27.62
  -4  -3  -9  106.22   11.44
  -4  -3  -9  114.16   10.29
  -4  -3  -9  123.31   15.44
   4   3   9  149.17   26.97
   4   3   9  112.36   10.64
   4   3   9  125.13   13.15
   4   3   9  109.85   16.66
   4   3   9  122.75   20.20
  -5  -3  -9  445.09   52.96
  -5  -3  -9  413.20   30.56
  -5  -3  -9  400.89   29.10
  -5  -3  -9  431.68   28.28
   5   3   9  463.75   28.72
   5   3   9  400.34   43.70
   5   3   9  459.75   32.24
   5   3   9  380.57   33.59
   5   3   9  462.07   39.06
  -6  -3  -9   71.60    6.69
  -6  -3  -9   62.59    6.97
  -6  -3  -9   81.70    7.97
  -6  -3  -9   63.73   25.17
   6   3   9   58.42   10.82
   6   3   9   71.05   17.03
   6   3   9   70.36   19.81
  -7  -3  -9  292.08   46.69
   7   3   9  326.97   34.12
   7   3   9  282.70   36.59
   7   3   9  319.81   25.90
  -8  -3  -9    6.26   24.91
   8   3   9   24.40   17.74
   8   3   9   29.42   12.88
   8   3   9   34.98    9.68
  -9  -3  -9  150.90   38.92
   9   3   9  172.96   21.30
   9   3   9  107.42   24.60
   9   3   9  137.16   31.87
 -10  -3  -9  -45.66   31.32
  10   3   9   19.96   13.06
  10   3   9    8.63    7.13
  10  -4  -9   38.42   14.25
   9  -4  -9   27.72   46.70
   9  -4  -9   52.25   14.96
   9  -4  -9   64.89   18.49
  -9   4   9   26.23   35.94
   8  -4  -9   86.21   19.81
   8  -4  -9   73.33   44.46
   8  -4  -9   90.04   19.34
  -8   4   9   82.95   14.14
  -8   4   9  119.46   41.80
  -8   4   9   70.85   13.40
  -8   4   9   78.76   14.09
   7  -4  -9   -8.82    6.28
   7  -4  -9  -17.48   33.58
   7  -4  -9   17.72   10.51
  -7   4   9    9.61    6.92
  -7   4   9    8.65    6.47
  -7   4   9   14.83   31.88
  -7   4   9   15.08    7.14
   6  -4  -9   41.97   15.26
   6  -4  -9   85.17   17.12
   6  -4  -9  127.65   42.14
  -6   4   9  114.73   14.84
  -6   4   9   55.21   31.47
  -6   4   9   78.74   14.15
  -6   4   9   71.44   13.32
   5  -4  -9   71.23   16.91
   5  -4  -9   26.78   24.73
   5  -4  -9   90.41   17.46
  -5   4   9   82.37   14.63
  -5   4   9   82.41   12.95
  -5   4   9   82.22   31.34
  -5   4   9   50.55   10.47
   4  -4  -9  317.01   55.00
   4  -4  -9  267.76   27.29
   4  -4  -9  295.28   29.46
  -4   4   9  314.49   49.72
  -4   4   9  283.21   23.77
  -4   4   9  251.37   22.28
   3  -4  -9  161.29   39.09
   3  -4  -9  165.60   21.57
   3  -4  -9  129.96   21.83
  -3   4   9  143.98   15.46
  -3   4   9  179.65   24.21
  -3   4   9  133.69   32.45
  -3   4   9  136.96   14.28
   2  -4  -9  542.22   41.02
   2  -4  -9  522.14   41.84
   2  -4  -9  528.31   37.70
   2  -4  -9  445.88   59.35
   2  -4  -9  510.71   35.66
  -2   4   9  519.41   55.53
  -2   4   9  460.76   38.79
  -2   4   9  521.26   36.02
  -2   4   9  566.04   37.42
  -2   4   9  458.42   40.54
   1  -4  -9  201.45   42.15
   1  -4  -9  196.87   17.81
   1  -4  -9  232.93   20.20
   1  -4  -9  243.60   22.98
   1  -4  -9  234.24   23.75
  -1   4   9  221.72   23.36
  -1   4   9  231.45   18.57
  -1   4   9  244.85   42.32
  -1   4   9  204.78   21.09
  -1   4   9  212.91   19.30
   0  -4  -9  746.02   51.11
   0  -4  -9  770.27   49.67
   0  -4  -9  804.73   55.34
   0  -4  -9  676.81   71.90
   0  -4  -9  841.97   55.50
   0   4   9  805.74   51.13
   0   4   9  815.01   50.02
   0   4   9  687.83   54.88
   0   4   9  685.27   53.14
   0   4   9  732.93   68.38
  -1  -4  -9  103.35   13.61
  -1  -4  -9  108.27   27.29
  -1  -4  -9  103.27   16.57
  -1  -4  -9  101.17   10.69
  -1  -4  -9  105.12   16.59
   1   4   9  116.45   14.18
   1   4   9  121.45   27.35
   1   4   9  104.68   13.53
   1   4   9   99.01   17.79
   1   4   9  107.51   10.96
   1   4   9  121.51   17.13
  -2  -4  -9  726.61   51.42
  -2  -4  -9  779.94   47.72
  -2  -4  -9  654.90   69.31
  -2  -4  -9  713.44   48.55
   2   4   9  671.36   52.45
   2   4   9  722.99   52.37
   2   4   9  715.40   64.99
   2   4   9  815.29   49.48
   2   4   9  719.51   47.40
   2   4   9  773.82   53.30
  -3  -4  -9   90.59   26.60
  -3  -4  -9   49.82    7.83
  -3  -4  -9   79.79   12.53
  -3  -4  -9   75.63   10.00
   3   4   9   31.03   17.55
   3   4   9   53.91   13.05
   3   4   9   63.46   10.26
   3   4   9   57.97   12.03
   3   4   9   76.66    9.42
   3   4   9   59.31   12.35
  -4  -4  -9  392.68   26.84
  -4  -4  -9  394.03   28.63
  -4  -4  -9  468.59   52.23
   4   4   9  402.48   41.76
   4   4   9  396.97   34.47
   4   4   9  386.74   26.90
   4   4   9  398.88   32.25
   4   4   9  350.59   31.46
  -5  -4  -9   47.74   22.73
  -5  -4  -9   28.14    4.70
  -5  -4  -9   26.80    4.84
  -5  -4  -9   31.18    5.46
   5   4   9    7.20   13.34
   5   4   9   31.42    5.50
   5   4   9   44.94   10.65
   5   4   9   25.96   10.61
   5   4   9   28.45    7.29
  -6  -4  -9  211.93   39.62
  -6  -4  -9  275.79   19.53
   6   4   9  289.94   35.11
   6   4   9  310.55   25.56
   6   4   9  281.20   19.53
   6   4   9  283.71   29.85
   6   4   9  266.25   22.25
  -7  -4  -9   20.69   22.18
   7   4   9    1.75   13.71
   7   4   9   17.86    3.60
   7   4   9   19.96    6.95
   7   4   9   20.41   11.57
  -8  -4  -9  238.35   41.19
   8   4   9  172.68   29.89
   8   4   9  170.85   28.38
   8   4   9  183.74   18.17
  -9  -4  -9   47.97   28.05
   9   4   9   28.94    8.36
   9   4   9   -6.27   18.16
   9   4   9    1.55   10.09
 -10  -4  -9  152.95   36.99
  10   4   9   90.52   23.15
  10   4   9  159.08   20.17
   9  -5  -9  121.93   62.53
   9  -5  -9   71.63   18.76
   9  -5  -9  101.60   22.86
  -9   5   9  110.01   16.92
  -9   5   9   93.51   50.36
  -9   5   9  140.50   18.65
   8  -5  -9   77.14   19.45
   8  -5  -9   63.34   16.60
   8  -5  -9   58.26   53.40
  -8   5   9   43.08   10.75
  -8   5   9   60.42   13.35
  -8   5   9   56.41   12.46
  -8   5   9   83.04   40.88
   7  -5  -9  178.80   57.88
   7  -5  -9  154.02   26.93
   7  -5  -9  173.98   26.04
  -7   5   9  203.28   50.66
  -7   5   9  172.47   18.48
  -7   5   9  174.76   20.61
  -7   5   9  162.82   17.66
   6  -5  -9   -0.99   33.75
   6  -5  -9   13.35   10.14
   6  -5  -9   26.88   11.32
  -6   5   9   27.57    9.23
  -6   5   9   10.58    6.19
  -6   5   9   37.14   29.65
  -6   5   9   21.10    8.59
   5  -5  -9  312.82   30.37
   5  -5  -9  328.80   29.98
   5  -5  -9  283.19   59.47
  -5   5   9  291.76   25.08
  -5   5   9  277.69   26.91
  -5   5   9  246.55   23.20
  -5   5   9  342.41   56.45
   4  -5  -9   74.46   14.92
   4  -5  -9   68.59   16.47
   4  -5  -9   57.95   28.60
  -4   5   9   58.71   10.72
  -4   5   9   80.13   13.17
  -4   5   9   81.61   31.25
   3  -5  -9  327.11   31.23
   3  -5  -9  352.44   58.76
   3  -5  -9  320.12   29.86
  -3   5   9  302.41   25.42
  -3   5   9  354.77   29.70
  -3   5   9  446.39   54.34
  -3   5   9  335.71   27.14
   2  -5  -9   31.84    7.33
   2  -5  -9   22.97   21.56
   2  -5  -9   19.66    9.65
   2  -5  -9   17.71    8.62
  -2   5   9   21.41    7.26
  -2   5   9    6.11   14.47
  -2   5   9   11.79    6.09
  -2   5   9    5.60    3.78
   1  -5  -9  271.01   26.90
   1  -5  -9  309.03   26.74
   1  -5  -9  300.17   22.25
   1  -5  -9  266.96   23.74
   1  -5  -9  272.24   48.72
  -1   5   9  331.31   24.24
  -1   5   9  296.57   22.55
  -1   5   9  267.56   25.24
  -1   5   9  255.92   26.46
  -1   5   9  247.92   42.22
   0  -5  -9    9.20    4.11
   0  -5  -9   15.06    5.59
   0  -5  -9    7.47    6.29
   0  -5  -9    1.91    6.27
   0  -5  -9   10.52   14.19
   0   5   9    9.84    4.53
   0   5   9   10.35    6.51
   0   5   9   22.66   17.07
   0   5   9    2.40    5.68
   0   5   9    4.59    3.84
  -1  -5  -9  360.55   29.72
  -1  -5  -9  357.56   26.94
  -1  -5  -9  352.37   29.84
  -1  -5  -9  320.51   44.38
  -1  -5  -9  328.61   25.40
   1   5   9  368.39   26.97
   1   5   9  392.73   26.12
   1   5   9  324.03   29.19
   1   5   9  395.62   45.48
   1   5   9  334.41   30.66
  -2  -5  -9   54.61   10.29
  -2  -5  -9   39.91    8.04
  -2  -5  -9   33.06    6.69
   2   5   9   38.87    7.20
   2   5   9   76.71   21.66
   2   5   9   54.78   12.78
   2   5   9   45.04    8.81
   2   5   9   44.06   10.32
  -3  -5  -9  691.77   70.02
  -3  -5  -9  786.16   50.60
  -3  -5  -9  739.93   48.64
  -3  -5  -9  718.46   48.63
   3   5   9  761.88   50.03
   3   5   9  746.96   54.08
   3   5   9  770.90   65.96
   3   5   9  749.11   53.46
   3   5   9  840.58   56.54
   3   5   9  760.78   48.81
  -4  -5  -9   10.17    3.83
  -4  -5  -9    7.24    3.04
  -4  -5  -9   25.82   19.81
  -4  -5  -9   16.32    4.33
   4   5   9    9.17    6.68
   4   5   9   25.10    6.43
   4   5   9   36.16   15.62
   4   5   9   22.66    9.90
   4   5   9    9.52    3.98
   4   5   9   27.87    8.27
  -5  -5  -9  463.08   32.26
  -5  -5  -9  473.84   53.77
   5   5   9  449.39   36.80
   5   5   9  571.60   42.43
   5   5   9  474.43   32.24
   5   5   9  488.79   45.88
  -6  -5  -9   32.54    5.70
  -6  -5  -9   35.23   21.17
   6   5   9   38.84   12.05
   6   5   9   20.39   13.98
   6   5   9   31.21    8.75
   6   5   9   23.84    4.96
  -7  -5  -9  218.62   38.80
   7   5   9  245.00   18.31
   7   5   9  324.37   33.77
   7   5   9  274.15   29.33
   7   5   9  248.95   23.20
   7   5   9  254.35   21.21
  -8  -5  -9  -16.95   20.60
   8   5   9  -11.54   12.51
   8   5   9    6.83    4.70
   8   5   9    8.20    2.64
   8   5   9    7.20    8.02
  -9  -5  -9  171.28   32.78
   9   5   9  161.45   25.12
   9   5   9  191.77   17.12
   9   5   9  139.61   10.57
   9   5   9  150.27   26.72
 -10  -5  -9   -7.31   19.24
  10   5   9   11.28    6.60
  10   5   9   11.56   12.80
   9  -6  -9   28.07   59.92
   9  -6  -9   24.48   13.73
   9  -6  -9   44.57   14.81
  -9   6   9  -37.72   46.55
  -9   6   9   40.60    9.94
  -9   6   9   41.19   11.57
   8  -6  -9   63.67   17.19
   8  -6  -9   83.88   20.21
  -8   6   9   78.21   15.14
  -8   6   9  110.04   15.89
  -8   6   9   73.90   42.29
   7  -6  -9   75.21   18.95
   7  -6  -9   26.25   40.12
   7  -6  -9   98.60   19.73
  -7   6   9   90.21   18.55
  -7   6   9   95.29   15.60
  -7   6   9   84.07   13.75
  -7   6   9   45.38   37.23
   6  -6  -9  316.87   30.07
   6  -6  -9  206.88   56.88
   6  -6  -9  287.00   31.65
  -6   6   9  334.46   26.84
  -6   6   9  277.55   29.20
  -6   6   9  290.86   58.28
  -6   6   9  235.58   23.50
   5  -6  -9   74.50   39.59
   5  -6  -9   52.16   13.84
   5  -6  -9   44.16   14.32
  -5   6   9   77.02   14.46
  -5   6   9   52.19   10.10
  -5   6   9   35.20   21.95
  -5   6   9   69.12   15.28
   4  -6  -9  415.25   34.16
   4  -6  -9  368.02   35.40
   4  -6  -9  400.49   67.37
  -4   6   9  372.97   30.31
  -4   6   9  362.61   58.51
  -4   6   9  348.65   33.30
  -4   6   9  354.67   28.09
   3  -6  -9  168.24   24.80
   3  -6  -9  166.34   21.78
   3  -6  -9  131.09   37.75
  -3   6   9  139.85   14.70
  -3   6   9  210.26   44.53
  -3   6   9  153.97   16.77
  -3   6   9  127.54   17.67
   2  -6  -9  640.37   46.66
   2  -6  -9  626.20   71.05
   2  -6  -9  705.80   51.28
   2  -6  -9  621.99   48.49
  -2   6   9  629.05   47.54
  -2   6   9  830.07   73.39
  -2   6   9  615.23   45.47
  -2   6   9  687.73   44.88
   1  -6  -9   73.01   28.06
   1  -6  -9   67.22   11.88
   1  -6  -9   73.18   13.90
   1  -6  -9   71.85   15.36
  -1   6   9   52.48   10.42
  -1   6   9   73.40   12.73
  -1   6   9   48.26    9.11
  -1   6   9   49.25   21.40
   0  -6  -9  227.79   19.77
   0  -6  -9  228.87   22.82
   0  -6  -9  242.41   20.08
   0  -6  -9  221.26   21.60
   0  -6  -9  152.94   38.96
   0   6   9  236.64   19.88
   0   6   9  196.12   20.31
   0   6   9  191.51   37.76
   0   6   9  173.99   27.31
   0   6   9  229.96   18.58
  -1  -6  -9   15.90    7.32
  -1  -6  -9    7.90    6.71
  -1  -6  -9    3.83    4.37
  -1  -6  -9    1.34    2.60
  -1  -6  -9   13.85   18.30
   1   6   9   14.21    7.93
   1   6   9    8.22    4.41
   1   6   9    7.40   13.45
   1   6   9    5.26    5.75
   1   6   9    8.53    5.11
  -2  -6  -9  302.34   24.89
  -2  -6  -9  314.29   22.90
  -2  -6  -9  279.29   22.65
  -2  -6  -9  260.31   43.89
   2   6   9  258.45   25.12
   2   6   9  295.89   26.87
   2   6   9  335.59   23.33
   2   6   9  353.28   24.45
   2   6   9  244.11   40.29
  -3  -6  -9   55.89    8.63
  -3  -6  -9   36.59    6.58
  -3  -6  -9   65.52    9.03
  -3  -6  -9   55.51   23.31
   3   6   9   65.51   10.29
   3   6   9   75.87   20.87
   3   6   9   56.88    8.98
   3   6   9   78.00   13.38
   3   6   9   79.40   14.53
  -4  -6  -9  439.61   31.53
  -4  -6  -9  427.51   52.08
   4   6   9  445.32   46.43
   4   6   9  442.74   32.31
   4   6   9  502.59   32.16
   4   6   9  436.82   35.34
   4   6   9  502.49   39.50
   4   6   9  452.42   36.38
  -5  -6  -9   31.87   20.60
  -5  -6  -9   25.16    5.22
   5   6   9   25.49    5.83
   5   6   9   24.66   10.95
   5   6   9   13.13    5.24
   5   6   9   29.41    8.81
   5   6   9   10.30    6.39
   5   6   9   11.40   13.13
  -6  -6  -9  276.01   40.90
   6   6   9  324.27   30.85
   6   6   9  256.47   20.26
   6   6   9  264.61   31.92
   6   6   9  252.46   24.23
   6   6   9  295.36   21.99
  -7  -6  -9    0.17   17.56
   7   6   9   12.63    9.91
   7   6   9    8.17   12.10
   7   6   9   13.21    7.38
   7   6   9   14.83    4.36
  -8  -6  -9  170.91   29.12
   8   6   9  202.65   25.33
   8   6   9  170.63   14.16
   8   6   9  197.71   16.79
   8   6   9  178.38   18.98
   8   6   9  176.86   24.51
  -9  -6  -9    5.78   13.94
   9   6   9   13.54    3.34
   9   6   9   11.90   10.45
   9   6   9    9.18    5.31
   9  -7  -9   78.27   19.20
  -9   7   9  -12.86   54.10
  -9   7   9   73.65   14.90
   8  -7  -9   55.71   16.24
   8  -7  -9   11.29   44.94
   8  -7  -9   87.63   19.62
  -8   7   9   47.55   49.94
  -8   7   9   48.38   12.61
  -8   7   9   46.24   10.87
   7  -7  -9  152.82   27.47
   7  -7  -9  134.34   23.19
   7  -7  -9  186.04   57.14
  -7   7   9  117.53   43.44
  -7   7   9  137.09   18.43
  -7   7   9  178.45   23.48
   6  -7  -9  133.86   24.68
   6  -7  -9  126.03   47.10
   6  -7  -9  134.32   21.68
  -6   7   9   76.36   37.79
  -6   7   9   95.47   14.66
  -6   7   9  122.87   18.95
   5  -7  -9  187.19   28.81
   5  -7  -9  171.08   24.37
   5  -7  -9  192.23   51.31
  -5   7   9  121.26   41.32
  -5   7   9  173.16   17.49
  -5   7   9  183.57   19.67
   4  -7  -9   34.24   12.51
   4  -7  -9   24.11   32.40
   4  -7  -9   28.28   10.59
  -4   7   9   34.44    8.46
  -4   7   9   12.79   26.35
  -4   7   9   31.16    8.79
   3  -7  -9  227.27   23.28
   3  -7  -9  230.44   26.12
   3  -7  -9  205.48   52.50
  -3   7   9  276.49   50.94
  -3   7   9  229.36   21.70
  -3   7   9  224.11   21.57
  -3   7   9  200.41   19.22
   2  -7  -9  139.60   22.45
   2  -7  -9   56.64   31.78
   2  -7  -9  129.14   18.12
  -2   7   9   83.56   12.69
  -2   7   9  102.39   15.18
  -2   7   9   95.04   14.69
  -2   7   9  100.72   33.19
   1  -7  -9  180.50   17.88
   1  -7  -9  219.01   21.00
   1  -7  -9  256.27   24.05
   1  -7  -9  134.87   36.72
  -1   7   9  169.50   17.62
  -1   7   9  176.45   16.61
  -1   7   9  163.87   38.53
  -1   7   9  199.87   19.20
   0  -7  -9    3.90    4.95
   0  -7  -9  -21.46   16.96
   0  -7  -9    1.74    4.69
   0  -7  -9   -2.57    5.34
   0   7   9   -0.98    3.11
   0   7   9   -1.34   12.27
   0   7   9    8.05    5.49
   0   7   9   -2.71    3.90
  -1  -7  -9  245.96   23.30
  -1  -7  -9  216.99   22.08
  -1  -7  -9  251.97   20.83
   1   7   9  224.64   40.24
   1   7   9  277.30   22.00
   1   7   9  261.96   20.81
   1   7   9  264.43   23.05
  -2  -7  -9   16.76    5.03
  -2  -7  -9   15.93    6.44
  -2  -7  -9   20.85   19.56
   2   7   9   21.06    5.41
   2   7   9   17.39    6.75
   2   7   9   21.93    7.91
   2   7   9   15.28    6.06
   2   7   9   29.39   18.76
  -3  -7  -9  521.55   34.54
  -3  -7  -9  544.22   59.35
   3   7   9  508.59   41.45
   3   7   9  545.29   55.76
   3   7   9  546.39   37.79
   3   7   9  538.04   39.95
   3   7   9  570.64   37.35
  -4  -7  -9   59.89   23.21
   4   7   9   73.73   13.06
   4   7   9   59.56   19.68
   4   7   9   38.26    8.23
   4   7   9   74.70   12.73
   4   7   9   43.01    7.93
  -5  -7  -9  218.31   38.05
  -5  -7  -9  197.82   16.40
   5   7   9  195.46   16.86
   5   7   9  170.02   18.68
   5   7   9  169.34   16.08
   5   7   9  192.61   20.33
   5   7   9  234.70   30.63
   5   7   9  235.19   25.13
  -6  -7  -9   21.73   20.24
   6   7   9   47.07   13.43
   6   7   9   33.52   14.14
   6   7   9   23.70    8.26
   6   7   9   33.17    6.70
   6   7   9   24.89    6.40
  -7  -7  -9  217.24   33.07
   7   7   9  263.44   28.69
   7   7   9  241.01   26.44
   7   7   9  244.55   19.12
   7   7   9  237.30   22.76
   7   7   9  229.26   19.24
  -8  -7  -9   -2.96   10.81
   8   7   9   23.17    7.82
   8   7   9   14.75    7.40
   8   7   9    8.13    8.89
   8   7   9   18.52    4.98
   9   7   9  123.37   23.49
   9   7   9  131.24   13.35
   9   7   9  145.51   12.25
   8  -8  -9  144.22   65.40
   8  -8  -9  115.10   24.27
   8  -8  -9   86.13   19.31
  -8   8   9   88.92   46.20
  -8   8   9   96.83   15.33
  -8   8   9   75.69   15.77
   7  -8  -9   27.12   14.43
   7  -8  -9   46.58   13.98
   7  -8  -9   28.19   51.06
  -7   8   9   47.11   12.37
  -7   8   9   16.50   45.57
  -7   8   9   60.50   11.63
   6  -8  -9  159.23   24.05
   6  -8  -9  199.37   60.43
   6  -8  -9  130.33   26.25
  -6   8   9  179.67   23.09
  -6   8   9  160.77   19.68
  -6   8   9  105.25   46.68
   5  -8  -9  113.13   19.07
   5  -8  -9  104.22   21.57
   5  -8  -9   49.49   48.60
  -5   8   9   89.40   16.49
  -5   8   9   74.52   12.68
  -5   8   9   72.56   41.90
   4  -8  -9  227.47   23.93
   4  -8  -9  268.10   56.92
   4  -8  -9  191.22   28.63
  -4   8   9  185.35   45.47
  -4   8   9  243.53   22.93
  -4   8   9  203.38   19.96
   3  -8  -9   37.70   13.35
   3  -8  -9   45.34   11.90
   3  -8  -9   38.77   27.13
  -3   8   9   30.61    9.33
  -3   8   9   38.74   30.60
  -3   8   9   39.51    9.80
  -3   8   9   29.79    7.75
   2  -8  -9  264.24   24.65
   2  -8  -9  267.18   53.25
   2  -8  -9  225.75   26.34
  -2   8   9  188.15   43.34
  -2   8   9  242.60   21.26
  -2   8   9  252.57   22.62
  -2   8   9  246.16   23.03
   1  -8  -9  140.64   18.99
   1  -8  -9  136.01   41.73
   1  -8  -9  121.49   20.56
   1  -8  -9  118.64   17.69
  -1   8   9   74.88   33.46
  -1   8   9  130.14   17.91
  -1   8   9  140.98   14.28
  -1   8   9  111.30   15.12
   0  -8  -9  229.15   26.40
   0  -8  -9  353.98   27.16
   0  -8  -9  307.57   55.03
   0  -8  -9  276.70   24.77
   0   8   9  300.80   25.45
   0   8   9  311.22   24.36
   0   8   9  323.08   24.97
   0   8   9  311.16   51.31
  -1  -8  -9   75.04   11.32
  -1  -8  -9   13.50   25.38
  -1  -8  -9   81.20   14.22
   1   8   9   67.61   11.03
   1   8   9   60.05   25.82
   1   8   9   63.49   11.61
   1   8   9   58.07   10.54
  -2  -8  -9  374.33   60.66
  -2  -8  -9  493.39   34.62
  -2  -8  -9  451.84   32.94
   2   8   9  491.80   35.63
   2   8   9  567.38   35.79
   2   8   9  491.60   57.20
   2   8   9  486.95   36.20
  -3  -8  -9   -7.16   20.31
   3   8   9   30.27    7.92
   3   8   9    7.42   19.74
   3   8   9   20.92    6.31
   3   8   9   11.07    5.53
  -4  -8  -9  175.93   35.89
   4   8   9  198.43   18.02
   4   8   9  212.05   36.17
   4   8   9  199.26   22.88
   4   8   9  226.11   20.83
   4   8   9  233.02   19.06
  -5  -8  -9    3.49   20.09
   5   8   9    1.71    5.06
   5   8   9    5.29   15.24
   5   8   9   -1.33    3.52
   5   8   9   13.27    4.98
   5   8   9    5.76    5.35
  -6  -8  -9  185.68   34.00
   6   8   9  264.28   24.64
   6   8   9  218.35   30.28
   6   8   9  263.90   29.95
   6   8   9  277.09   21.29
   6   8   9  274.29   21.70
   6   8   9  322.81   31.46
  -7  -8  -9   21.65   15.48
   7   8   9   18.46    9.92
   7   8   9   50.31    8.49
   7   8   9   41.45   13.44
   7   8   9   28.40    6.89
   7   8   9   21.95    8.66
   8   8   9  174.90   28.39
   8   8   9  152.32   17.04
   8   8   9  138.45   13.93
   7  -9  -9   91.32   67.97
   7  -9  -9   65.11   16.08
   7  -9  -9   74.36   20.17
  -7   9   9   55.34   12.04
  -7   9   9   92.41   16.96
  -7   9   9  -17.29   53.05
   6  -9  -9   78.05   15.74
   6  -9  -9   18.31   57.67
   6  -9  -9   31.64   15.09
  -6   9   9   45.13   13.00
  -6   9   9   42.44    9.97
  -6   9   9    4.74   35.17
   5  -9  -9  160.60   28.21
   5  -9  -9  142.55   59.53
   5  -9  -9  139.23   21.79
  -5   9   9  142.72   18.70
  -5   9   9  190.01   24.75
  -5   9   9  145.04   46.03
   4  -9  -9   99.58   50.89
   4  -9  -9  104.22   17.79
   4  -9  -9  104.14   22.39
  -4   9   9   89.87   15.93
  -4   9   9   72.09   45.63
  -4   9   9   89.68   13.94
   3  -9  -9  192.70   29.07
   3  -9  -9  194.07   24.57
   3  -9  -9  204.68   51.61
  -3   9   9  213.31   54.37
  -3   9   9  170.65   18.12
  -3   9   9  222.22   20.05
  -3   9   9  194.61   21.23
   2  -9  -9   51.21   14.49
   2  -9  -9   44.66   11.08
   2  -9  -9   23.26   34.78
  -2   9   9   30.98    8.44
  -2   9   9   40.24    8.83
  -2   9   9   54.82   33.30
  -2   9   9   32.96   10.54
   1  -9  -9  250.81   23.81
   1  -9  -9  276.49   59.50
   1  -9  -9  305.61   27.82
   1  -9  -9  255.41   23.69
  -1   9   9  242.49   23.81
  -1   9   9  252.62   22.51
  -1   9   9  271.50   22.58
  -1   9   9  303.50   53.98
   0  -9  -9  120.76   15.82
   0  -9  -9  107.38   17.91
   0  -9  -9  102.67   15.59
   0   9   9  134.92   38.41
   0   9   9   93.32   15.57
   0   9   9  117.86   14.96
   0   9   9  118.85   13.02
  -1  -9  -9  265.65   21.42
  -1  -9  -9  286.48   50.86
  -1  -9  -9  287.76   24.15
   1   9   9  194.76   43.84
   1   9   9  252.28   21.56
   1   9   9  257.83   23.22
   1   9   9  242.91   21.78
  -2  -9  -9   27.01   27.86
  -2  -9  -9   45.57    6.89
  -2  -9  -9   50.31    8.41
   2   9   9   71.25   12.37
   2   9   9   37.77   25.24
   2   9   9   35.17    8.68
   2   9   9   56.36    9.60
  -3  -9  -9  117.70   36.23
   3   9   9  123.31   16.58
   3   9   9  123.37   13.60
   3   9   9  150.76   14.55
   3   9   9  140.69   34.52
  -4  -9  -9   20.17   24.07
   4   9   9   13.53    5.88
   4   9   9   11.18    5.56
   4   9   9    5.16    5.64
   4   9   9   -6.27   18.57
  -5  -9  -9  249.38   44.48
   5   9   9  317.93   26.05
   5   9   9  377.04   28.11
   5   9   9  306.27   39.82
   5   9   9  355.88   26.24
  -6  -9  -9   33.81   21.00
   6   9   9   40.09    8.46
   6   9   9   38.92   13.47
   6   9   9   30.50   15.20
   6   9   9   35.10    8.31
   6   9   9   54.13   10.99
   7   9   9  203.04   26.84
   7   9   9  189.14   16.92
   7   9   9  207.03   17.97
   6 -10  -9  -18.34   64.45
   6 -10  -9   86.31   22.59
   6 -10  -9   97.44   19.40
  -6  10   9  100.51   18.36
  -6  10   9  135.58   17.70
  -6  10   9   72.00   60.79
   5 -10  -9   28.82   10.56
   5 -10  -9   54.74   17.28
   5 -10  -9  -67.33   52.74
  -5  10   9   60.15   14.14
  -5  10   9  -11.36   45.63
  -5  10   9   24.59    7.57
   4 -10  -9  258.83   35.36
   4 -10  -9  211.34   22.16
   4 -10  -9   29.51   45.79
  -4  10   9  175.29   24.64
  -4  10   9  277.13   64.27
  -4  10   9  191.39   19.64
   3 -10  -9   29.31   13.87
   3 -10  -9   63.76   12.76
   3 -10  -9   28.36   40.50
  -3  10   9    7.48   42.85
  -3  10   9   48.54   12.18
  -3  10   9   36.92    9.22
  -3  10   9   71.11   11.89
   2 -10  -9  168.67   18.38
   2 -10  -9  185.96   26.92
   2 -10  -9   62.56   37.06
  -2  10   9  181.65   49.98
  -2  10   9  144.48   18.62
  -2  10   9  160.19   21.99
  -2  10   9  153.73   16.00
   1 -10  -9   20.29    6.58
   1 -10  -9  -16.84   35.65
   1 -10  -9   37.85   12.63
  -1  10   9   12.46    5.85
  -1  10   9   34.52    6.97
  -1  10   9   54.55   34.75
  -1  10   9   10.85    7.06
   0 -10  -9  261.15   26.10
   0 -10  -9  246.23   22.39
   0  10   9  168.06   45.06
   0  10   9  327.12   26.10
   0  10   9  252.01   22.44
   0  10   9  249.48   20.76
  -1 -10  -9   54.23   10.67
  -1 -10  -9   17.62   35.07
   1  10   9   55.05   10.26
   1  10   9   75.56   10.64
   1  10   9   53.61   11.66
   1  10   9   33.81   30.58
  -2 -10  -9  198.69   46.56
  -2 -10  -9  155.41   11.33
   2  10   9  144.11   18.30
   2  10   9  155.36   20.32
   2  10   9  154.38   14.43
   2  10   9  149.30   40.36
  -3 -10  -9  -26.05   27.40
   3  10   9   22.96   26.48
   3  10   9   28.46    7.93
   3  10   9   27.89    6.18
   3  10   9   38.60    9.61
  -4 -10  -9  246.64   46.63
   4  10   9  218.80   20.39
   4  10   9  205.36   19.75
   4  10   9  219.47   41.27
   5  10   9   26.38    7.36
   5  10   9   30.52    8.14
   5  10   9   37.81    8.47
   5  10   9   23.78   21.63
   6  10   9  165.31   15.35
   6  10   9  104.35   19.60
   6  10   9  156.72   23.55
   6  10   9  163.43   16.38
  -5  11   9   91.79   63.35
   4 -11  -9   46.69   11.56
   4 -11  -9   12.26   62.47
   4 -11  -9   45.75   14.74
  -4  11   9   32.07   53.64
  -4  11   9   18.73   10.00
  -4  11   9   37.12   10.10
   3 -11  -9  -10.91   54.89
   3 -11  -9   99.76   16.60
   3 -11  -9  138.73   26.00
  -3  11   9   90.03   55.07
  -3  11   9  169.89   23.45
  -3  11   9  167.67   20.46
   2 -11  -9   69.17   48.16
   2 -11  -9   27.49    7.65
   2 -11  -9   34.99   12.81
  -2  11   9    3.23   42.10
  -2  11   9   10.40    6.97
  -2  11   9   14.62    8.88
   1 -11  -9  153.28   24.25
  -1  11   9  170.17   18.43
  -1  11   9  135.60   50.13
  -1  11   9  198.64   21.28
   0 -11  -9   32.51   10.17
   0 -11  -9   25.54    7.83
   0 -11  -9   22.98   39.33
   0  11   9   -7.46   35.96
   0  11   9   28.07    9.98
   0  11   9   28.64    8.17
   0  11   9   32.80    6.58
  -1 -11  -9   -9.54   37.05
  -1 -11  -9  128.81   14.46
   1  11   9  136.59   17.45
   1  11   9   79.88   39.27
   1  11   9  155.45   20.41
  -2 -11  -9   -4.81   38.16
   2  11   9   23.82    8.62
   2  11   9   45.92   31.59
   2  11   9   16.93    7.41
   3  11   9  176.03   17.76
   3  11   9  100.25   38.20
   3  11   9  134.01   18.22
   4  11   9    8.56   30.16
   4  11   9   27.56    5.09
   4  11   9   25.52    8.22
   4  11   9   50.61   10.22
   5  11   9  166.30   16.80
   5  11   9  141.41   18.44
   5  11   9  168.60   33.99
   2 -12  -9  107.27   21.36
  -2  12   9  107.01   18.92
  -2  12   9   62.98   52.29
  -2  12   9  106.07   16.40
   1 -12  -9   12.18   10.10
  -1  12   9  -47.98   44.69
  -1  12   9    4.44    5.65
  -1  12   9    9.19    6.22
   0  12   9  114.44   17.12
   0  12   9  148.62   21.30
   0  12   9   80.78   49.26
  -1 -12  -9    0.50    1.98
  -1 -12  -9   -0.30    2.22
   1  12   9    3.58    5.76
   1  12   9    5.64    6.97
   1  12   9   14.56   41.37
   2  12   9  149.26   19.26
   2  12   9   39.79   43.78
   2  12   9  135.72   20.42
   3   5 -10  -24.42   42.93
   3   5 -10   39.39   13.82
   3   5 -10   56.43   10.43
   3   5 -10   66.04   15.27
  -3  -5  10   75.56   15.96
  -3  -5  10   97.75   42.32
  -3  -5  10   47.61   13.84
   2   5 -10   -3.19    8.18
   2   5 -10    5.54   45.28
  -2  -5  10   -3.29    6.28
  -2  -5  10   16.02   10.77
  -2  -5  10    0.43   31.41
   1   5 -10   46.30   15.35
   1   5 -10   28.43   43.04
  -1  -5  10   72.25   37.63
  -1  -5  10   62.88   17.76
  -1  -5  10   75.93   17.64
   0   5 -10   10.62   10.17
   0   5 -10   23.94   42.06
   0  -5  10   32.39   28.09
   0  -5  10   11.91   11.31
   0  -5  10   15.22   10.68
  -1   5 -10  141.56   62.26
  -1   5 -10  111.77   22.31
   1  -5  10  101.55   45.23
   1  -5  10  118.74   22.90
   1  -5  10  108.10   25.07
  -2   5 -10   25.13   12.13
   2  -5  10   38.72   17.01
   2  -5  10   21.63   30.05
   2  -5  10   43.29   14.94
  -3   5 -10   60.48   49.40
  -3   5 -10   54.65   16.73
   3  -5  10  101.91   26.57
   3  -5  10   41.96   14.54
   3  -5  10   60.82   40.38
  -4   5 -10   53.42   49.90
  -4   5 -10   22.59   11.62
   4  -5  10   19.17   15.34
   4  -5  10    7.83   31.23
   5   4 -10   21.42   12.15
   5   4 -10   19.72   11.02
  -5  -4  10    3.76    6.09
  -5  -4  10   16.87    7.65
   4   4 -10  107.42   22.32
   4   4 -10   86.22   46.54
   4   4 -10   92.76   18.88
  -4  -4  10   74.64   37.77
  -4  -4  10   88.39   15.99
   3   4 -10   36.53   12.84
   3   4 -10   51.81   37.38
   3   4 -10   42.61   13.11
  -3  -4  10   21.37   30.43
  -3  -4  10   52.76   13.76
  -3  -4  10   64.53   13.28
   2   4 -10  173.20   17.11
   2   4 -10  163.95   27.19
   2   4 -10  142.98   22.97
   2   4 -10  180.39   52.35
  -2  -4  10  161.62   41.12
  -2  -4  10  119.47   22.49
  -2  -4  10  117.89   20.83
   1   4 -10   49.24   14.71
  -1  -4  10   40.45   31.61
  -1  -4  10   51.17   14.59
  -1  -4  10   89.21   20.23
   0   4 -10  191.73   29.51
   0   4 -10  210.92   52.30
   0  -4  10  199.69   31.75
   0  -4  10  175.28   27.20
   0  -4  10  175.42   45.61
  -1   4 -10    4.29   35.47
  -1   4 -10    5.81    9.12
   1  -4  10   -3.25    6.86
   1  -4  10   -1.69   28.80
   1  -4  10    9.77   11.50
  -2   4 -10  171.31   49.95
  -2   4 -10  182.23   27.30
   2  -4  10  127.20   27.74
   2  -4  10  121.94   38.45
   2  -4  10  144.23   24.20
  -3   4 -10    7.85    9.60
  -3   4 -10   11.93   39.73
   3  -4  10    2.87   10.79
   3  -4  10   -9.51   31.22
   3  -4  10    3.81    9.20
  -4   4 -10  160.58   52.41
  -4   4 -10  112.84   22.77
   4  -4  10   87.05   24.14
   4  -4  10   77.25   33.50
   4  -4  10  105.32   22.81
  -5   4 -10    7.69    8.08
  -5   4 -10  -11.72   30.44
   5  -4  10   12.55   10.61
   5  -4  10   23.70   40.03
   5  -4  10   12.92   14.90
   6   3 -10    2.88   71.70
   6   3 -10   75.97   17.61
   6   3 -10   41.22   13.54
  -6  -3  10   24.89   31.09
  -6  -3  10   55.15   12.74
   5   3 -10  139.02   48.24
   5   3 -10  106.30   19.97
   5   3 -10  102.48   20.97
  -5  -3  10   84.63   15.95
  -5  -3  10   63.08   33.17
   4   3 -10   36.68   13.81
   4   3 -10   44.66   41.06
   4   3 -10   53.75   14.20
  -4  -3  10   32.37    8.36
  -4  -3  10   43.93   12.40
  -4  -3  10   37.39   28.83
   3   3 -10  125.67   21.03
   3   3 -10  165.39   26.12
   3   3 -10   61.74   40.06
  -3  -3  10  146.18   21.61
  -3  -3  10   93.03   33.71
  -3  -3  10  142.44   21.74
   2   3 -10   83.09   19.12
   2   3 -10   62.60   37.99
   2   3 -10  105.79   13.21
   2   3 -10  124.47   20.72
  -2  -3  10   92.43   18.35
  -2  -3  10   67.77   28.44
  -2  -3  10  107.03   18.73
   1   3 -10  211.40   19.98
   1   3 -10  211.15   50.61
   1   3 -10  215.26   29.61
   1   3 -10  189.66   26.16
  -1  -3  10  154.05   23.99
  -1  -3  10  180.22   24.57
  -1  -3  10  182.66   42.91
   0   3 -10   68.77   17.03
   0   3 -10   81.46   38.34
   0  -3  10   57.52   14.50
   0  -3  10   72.25   18.75
   0  -3  10   61.94   32.82
  -1   3 -10  139.83   23.68
  -1   3 -10  126.57   41.12
   1  -3  10  101.76   19.43
   1  -3  10   94.69   21.76
   1  -3  10   51.91   27.71
  -2   3 -10   15.54   10.47
  -2   3 -10   -5.05   30.22
   2  -3  10   -4.71   24.28
   2  -3  10   11.43   12.17
   2  -3  10    3.80    8.35
  -3   3 -10  129.99   23.23
  -3   3 -10  117.94   41.70
   3  -3  10  147.62   23.80
   3  -3  10  179.45   40.92
   3  -3  10  131.72   27.60
  -4   3 -10   19.51   10.18
  -4   3 -10   14.21   34.98
   4  -3  10   26.42   15.71
   4  -3  10   13.40   10.51
   4  -3  10    3.16   22.44
  -5   3 -10  128.31   23.06
  -5   3 -10    8.26   37.03
  -5   3 -10  146.43   13.17
   5  -3  10  120.09   22.62
   5  -3  10  200.71   45.83
   5  -3  10  133.42   30.29
  -6   3 -10   19.05   11.44
  -6   3 -10    1.13    2.33
  -6   3 -10   -9.74   28.76
   6  -3  10   26.64   16.78
   6  -3  10    4.16   27.22
   6  -3  10   -1.85    8.45
  -7   3 -10  111.56   20.13
  -7   3 -10   21.71   42.81
   7  -3  10   70.22   24.50
   7  -3  10   62.63   16.72
   7  -3  10   60.15   39.79
   7   2 -10   22.85   12.96
   7   2 -10   32.62   13.18
  -7  -2  10   42.97   10.17
  -7  -2  10   13.67   44.56
   6   2 -10  120.36   48.13
   6   2 -10   92.99   19.83
   6   2 -10   84.23   19.06
  -6  -2  10   83.22   15.04
  -6  -2  10   54.70   34.17
   5   2 -10   28.21   12.45
   5   2 -10   22.75   11.54
   5   2 -10  -30.12   27.49
  -5  -2  10   23.29    8.63
  -5  -2  10   16.49   25.60
   4   2 -10  208.09   30.50
   4   2 -10  205.38   28.12
  -4  -2  10  186.17   42.72
  -4  -2  10  215.72   20.04
  -4  -2  10  246.35   23.59
   3   2 -10   42.48   13.76
   3   2 -10   34.86   32.42
   3   2 -10   39.36   12.06
  -3  -2  10   39.12   11.92
  -3  -2  10   43.99   25.68
  -3  -2  10   58.56   12.80
   2   2 -10  340.42   31.87
   2   2 -10  271.35   56.10
   2   2 -10  316.13   33.14
  -2  -2  10  330.34   30.24
  -2  -2  10  416.89   50.89
  -2  -2  10  314.29   30.68
   1   2 -10   97.72   15.12
   1   2 -10   38.51   24.88
   1   2 -10   76.96   16.51
   1   2 -10   50.07   14.19
  -1  -2  10   90.68   18.46
  -1  -2  10   74.68   28.24
  -1  -2  10   68.01   15.11
   0   2 -10  355.26   35.73
   0   2 -10  391.67   62.66
   0   2 -10  404.97   35.06
   0  -2  10  470.89   56.11
   0  -2  10  373.06   34.04
   0  -2  10  342.60   35.97
  -1   2 -10   69.71   16.66
  -1   2 -10   51.84   32.54
   1  -2  10   25.99   20.73
   1  -2  10   65.51   17.20
   1  -2  10   52.47   13.08
  -2   2 -10  322.53   30.62
  -2   2 -10  306.33   55.77
   2  -2  10  235.07   26.83
   2  -2  10  220.84   43.43
   2  -2  10  265.16   32.06
  -3   2 -10   36.01   12.72
  -3   2 -10   42.08   29.87
   3  -2  10   69.91   29.32
   3  -2  10   66.09   19.12
   3  -2  10   44.88   13.24
  -4   2 -10  343.93   31.82
  -4   2 -10  297.90   22.56
  -4   2 -10  297.95   57.62
   4  -2  10  257.96   28.93
   4  -2  10  242.46   33.84
   4  -2  10  289.18   51.23
  -5   2 -10   47.68   14.42
  -5   2 -10   34.12   27.27
  -5   2 -10   42.21    7.38
   5  -2  10   45.55   18.11
   5  -2  10   22.51   25.92
   5  -2  10   35.37   13.32
  -6   2 -10  209.13   16.02
  -6   2 -10  164.64   25.52
   6  -2  10  206.27   28.79
   6  -2  10  177.70   35.40
   6  -2  10  201.07   47.29
  -7   2 -10    7.91   35.96
  -7   2 -10    0.05    1.17
  -7   2 -10   10.19    9.99
   7  -2  10    5.84   32.82
   7  -2  10    2.38    9.45
   7  -2  10   -2.01    6.93
  -8   2 -10  -32.59   41.15
   8  -2  10   62.28   41.03
   8   1 -10   16.13   12.60
   8   1 -10   42.05   15.16
  -8  -1  10    0.85    4.47
  -8  -1  10   19.54    7.15
   7   1 -10    0.97   38.96
   7   1 -10   52.77   16.53
   7   1 -10   66.51   16.74
  -7  -1  10   39.78   11.14
  -7  -1  10   36.47   31.93
   6   1 -10   27.14   10.59
   6   1 -10  -13.22   33.01
   6   1 -10   28.84   11.83
  -6  -1  10   29.57    9.84
  -6  -1  10   -1.79   26.31
  -6  -1  10   17.70   10.24
   5   1 -10  112.55   21.33
   5   1 -10   90.81   19.33
  -5  -1  10  108.25   17.43
  -5  -1  10  137.27   34.91
   4   1 -10   60.96   15.10
   4   1 -10   27.09   27.78
   4   1 -10   35.04   13.22
  -4  -1  10   27.54    9.69
  -4  -1  10   44.85    9.21
  -4  -1  10   37.98   25.08
   3   1 -10  129.26   40.78
   3   1 -10  169.17   24.28
   3   1 -10  158.77   25.50
  -3  -1  10  215.79   40.71
  -3  -1  10  168.75   19.17
  -3  -1  10  156.83   18.62
   2   1 -10   11.53    8.05
   2   1 -10   19.45   24.34
   2   1 -10   37.17   11.19
  -2  -1  10   30.70   10.13
  -2  -1  10   37.89   11.65
  -2  -1  10  -11.01   18.86
   1   1 -10  156.62   24.64
   1   1 -10   88.56   37.04
   1   1 -10  148.71   22.24
  -1  -1  10  161.52   35.96
  -1  -1  10  173.29   22.88
  -1  -1  10  153.12   23.03
   0   1 -10   81.67   18.13
   0   1 -10  106.93   16.16
   0   1 -10   55.11   30.53
   0   1 -10   60.89   14.57
   0  -1  10   83.91   26.65
   0  -1  10   85.02   17.93
   0  -1  10   86.16   16.29
  -1   1 -10  356.80   33.27
  -1   1 -10  324.22   57.01
   1  -1  10  366.80   47.31
   1  -1  10  302.10   33.21
   1  -1  10  335.91   29.87
  -2   1 -10   85.98   18.43
  -2   1 -10   95.32   35.16
  -2   1 -10  100.64   10.27
   2  -1  10   82.30   28.70
   2  -1  10   68.31   18.21
   2  -1  10   79.77   15.40
  -3   1 -10  195.70   17.49
  -3   1 -10  242.40   49.40
  -3   1 -10  248.95   25.10
   3  -1  10  190.13   22.10
   3  -1  10  199.47   32.87
   3  -1  10  259.06   42.34
  -4   1 -10   45.99   12.90
  -4   1 -10   43.45   29.35
  -4   1 -10   58.46    8.58
   4  -1  10   24.15   14.27
   4  -1  10   16.75    9.86
   4  -1  10    1.25   22.23
  -5   1 -10  193.86   26.66
  -5   1 -10  213.49   15.99
  -5   1 -10  177.49   44.13
   5  -1  10  145.25   29.74
   5  -1  10  167.50   25.32
   5  -1  10  199.13   40.92
  -6   1 -10   41.31    6.55
  -6   1 -10    1.94   24.09
  -6   1 -10   57.91   14.47
   6  -1  10   55.13   19.64
   6  -1  10   41.61   13.62
   6  -1  10   12.52   26.03
  -7   1 -10  130.29   21.49
   7  -1  10  139.80   41.25
   7  -1  10  153.57   31.66
   7  -1  10  151.02   24.33
  -8   1 -10  -37.04   34.55
  -8   1 -10   14.74    9.11
   8  -1  10  -15.16   30.14
   8  -1  10   36.39   16.85
   8  -1  10   22.19   11.75
   8   0 -10   98.85   21.69
   8   0 -10   61.06   17.56
   8   0 -10   35.21   44.25
  -8   0  10   43.57   34.86
  -8   0  10   89.84   13.33
   7   0 -10   51.35   14.40
   7   0 -10   66.64   17.53
   7   0 -10  -31.17   38.69
  -7   0  10   30.52    8.58
  -7   0  10   56.74   13.06
  -7   0  10   73.35   35.01
   6   0 -10   56.97   16.28
   6   0 -10   54.77   36.89
   6   0 -10  103.03   20.16
  -6   0  10   58.77   33.33
  -6   0  10   77.82   13.94
   5   0 -10  -13.56   31.73
   5   0 -10   19.06   10.81
   5   0 -10   34.67   12.22
  -5   0  10   35.88   24.54
  -5   0  10   33.02    9.62
  -5   0  10   21.42    4.91
   4   0 -10   85.98   17.63
   4   0 -10   80.94   32.17
   4   0 -10  110.59   21.41
  -4   0  10  120.53   13.50
  -4   0  10   49.64   27.67
  -4   0  10  106.57   16.32
   3   0 -10   15.18    9.25
   3   0 -10    5.24    6.99
   3   0 -10   36.77   25.87
  -3   0  10    4.30   17.58
  -3   0  10    8.15    6.56
  -3   0  10   17.14    7.18
   2   0 -10  218.43   24.85
   2   0 -10  233.35   26.14
   2   0 -10  151.09   38.86
  -2   0  10  255.81   23.93
  -2   0  10  255.23   23.16
  -2   0  10  234.58   41.11
   1   0 -10   35.19   11.90
   1   0 -10    5.84   22.48
   1   0 -10   40.11   12.05
  -1   0  10   69.61   14.63
  -1   0  10   36.91   17.70
  -1   0  10   50.46   11.70
   0   0 -10  429.94   64.86
   0   0 -10  403.84   35.06
   0   0 -10  352.16   34.52
   0   0  10  368.46   34.19
   0   0  10  423.94   32.66
   0   0  10  381.09   48.50
  -1   0 -10  160.69   14.74
  -1   0 -10  185.02   25.05
  -1   0 -10  157.89   40.23
   1   0  10  153.31   34.00
   1   0  10  175.44   18.74
   1   0  10  130.29   23.42
  -2   0 -10  506.43   61.65
  -2   0 -10  470.95   32.83
  -2   0 -10  533.10   40.40
   2   0  10  422.18   36.26
   2   0  10  499.82   53.49
   2   0  10  407.15   40.20
  -3   0 -10   -1.90    5.91
  -3   0 -10    2.72    3.20
  -3   0 -10    5.17   21.08
   3   0  10   26.64   16.19
   3   0  10    5.35    9.44
   3   0  10    1.37    5.88
  -4   0 -10  215.16   17.43
  -4   0 -10  230.06   46.91
  -4   0 -10  213.43   23.80
   4   0  10  244.45   23.03
   4   0  10  187.29   31.61
   4   0  10  185.38   36.41
  -5   0 -10    6.03    7.13
  -5   0 -10   31.93   24.86
  -5   0 -10   -3.75    1.96
   5   0  10    5.89    7.21
   5   0  10    1.04   10.05
   5   0  10   13.51   18.96
  -6   0 -10  125.46   21.10
  -6   0 -10   78.04   34.04
  -6   0 -10  126.05   10.46
   6   0  10  146.70   28.80
   6   0  10  125.27   31.34
   6   0  10  118.80   19.59
  -7   0 -10   15.19    7.02
  -7   0 -10   -6.04   28.59
  -7   0 -10   26.16    8.71
   7   0  10   14.48    8.50
   7   0  10  -10.31   24.02
   7   0  10   16.32   13.13
  -8   0 -10  107.13   14.88
  -8   0 -10   -1.38   51.06
   8   0  10   66.02   21.11
   8   0  10  129.58   38.03
   8   0  10   76.96   16.70
  -9   0 -10    5.76    5.64
  -9   0 -10   16.34   35.94
  -9   0 -10    2.39    3.30
   9   0  10    9.23    8.77
   9   0  10   21.63   34.28
   9   0  10   12.64   13.89
   9  -1 -10   73.80   19.34
   9  -1 -10   46.27   16.09
  -9   1  10   67.49   11.06
   8  -1 -10    6.56   41.33
   8  -1 -10   22.30   12.77
   8  -1 -10   33.43   14.48
  -8   1  10   44.89   10.44
  -8   1  10    8.95   35.69
   7  -1 -10  143.94   24.82
   7  -1 -10   76.43   42.85
   7  -1 -10   78.26   19.37
  -7   1  10  127.61   17.21
  -7   1  10   90.20   35.58
   6  -1 -10   28.58   10.92
   6  -1 -10   33.00   12.77
  -6   1  10  -17.49   24.12
  -6   1  10   29.62    9.10
   5  -1 -10   92.83   19.70
   5  -1 -10  110.47   21.66
   5  -1 -10   78.35   37.26
  -5   1  10  126.54   17.50
  -5   1  10  127.33   12.24
  -5   1  10  106.55   30.54
   4  -1 -10   94.95   18.64
   4  -1 -10  116.03   39.39
   4  -1 -10   83.64   17.61
  -4   1  10   37.71   25.09
  -4   1  10   81.51   12.78
  -4   1  10  105.72   15.54
   3  -1 -10  181.34   27.18
   3  -1 -10  174.52   43.40
   3  -1 -10  163.38   24.43
  -3   1  10  252.30   44.33
  -3   1  10  210.36   19.59
  -3   1  10  191.94   19.59
   2  -1 -10  116.53   20.47
   2  -1 -10  116.46   18.85
   2  -1 -10   85.20   32.19
  -2   1  10   99.73   27.36
  -2   1  10  113.90   16.42
  -2   1  10  122.34   14.85
   1  -1 -10  241.02   49.02
   1  -1 -10  278.62   27.22
   1  -1 -10  234.32   27.05
  -1   1  10  247.11   42.39
  -1   1  10  328.07   27.03
  -1   1  10  301.68   25.34
   0  -1 -10   80.29   15.82
   0  -1 -10   98.72   17.81
   0  -1 -10   79.58   11.28
   0  -1 -10   75.38   27.56
   0   1  10   98.15   15.50
   0   1  10   29.29   20.00
   0   1  10  109.95   18.16
  -1  -1 -10  270.79   51.99
  -1  -1 -10  300.08   29.19
  -1  -1 -10  298.54   29.03
  -1  -1 -10  307.14   23.25
   1   1  10  284.34   25.63
   1   1  10  252.51   43.28
   1   1  10  333.46   30.22
  -2  -1 -10   51.49    8.68
  -2  -1 -10   81.06   16.22
  -2  -1 -10   71.06   12.24
  -2  -1 -10   44.81   26.24
   2   1  10   52.70   14.86
   2   1  10   60.97   12.34
   2   1  10   89.47   24.76
  -3  -1 -10  389.06   26.75
  -3  -1 -10  362.24   28.92
  -3  -1 -10  380.25   33.02
  -3  -1 -10  406.09   54.31
   3   1  10  363.60   30.51
   3   1  10  342.15   35.13
   3   1  10  347.05   43.36
  -4  -1 -10   13.16   21.73
  -4  -1 -10   12.40    8.20
  -4  -1 -10   30.77    7.40
  -4  -1 -10    6.80    3.26
   4   1  10    9.82    6.52
   4   1  10    3.40    8.79
   4   1  10    2.29   17.30
  -5  -1 -10  189.93   15.78
  -5  -1 -10  212.09   18.34
  -5  -1 -10  217.49   43.48
  -5  -1 -10  219.83   22.07
   5   1  10  215.42   22.01
   5   1  10  220.02   39.88
   5   1  10  206.65   32.61
  -6  -1 -10   -0.09    6.15
  -6  -1 -10    6.11    2.85
  -6  -1 -10    0.47    4.80
  -6  -1 -10   16.36   27.35
   6   1  10   -4.01    9.44
   6   1  10   -2.83    4.96
   6   1  10   10.19   18.13
  -7  -1 -10  162.86   16.65
  -7  -1 -10   43.47   33.72
  -7  -1 -10  144.39   13.84
   7   1  10  131.53   35.06
   7   1  10   90.02   17.42
   7   1  10  137.92   28.25
  -8  -1 -10   -3.37    2.14
  -8  -1 -10    6.94    4.79
  -8  -1 -10  -24.88   28.70
   8   1  10    9.52    7.73
   8   1  10  -28.75   22.63
   8   1  10   -1.14    9.28
  -9  -1 -10   -8.51   35.72
   9   1  10   78.34   24.18
   9   1  10  147.39   22.28
   9   1  10  110.64   37.57
   9  -2 -10   39.07   14.89
   9  -2 -10   31.51   14.31
  -9   2  10   40.66   10.16
  -9   2  10   42.70   48.81
   8  -2 -10   84.42   19.56
   8  -2 -10   24.16   46.92
   8  -2 -10   56.89   17.13
  -8   2  10   33.62   36.12
  -8   2  10   86.82   13.68
   7  -2 -10  123.32   50.84
   7  -2 -10   99.60   20.86
   7  -2 -10   80.44   19.21
  -7   2  10   93.54   15.71
  -7   2  10  119.05   41.92
   6  -2 -10  306.84   31.59
   6  -2 -10  342.50   64.02
   6  -2 -10  289.62   29.70
  -6   2  10  245.61   19.66
  -6   2  10  277.23   24.47
  -6   2  10  281.75   21.82
  -6   2  10  251.38   51.29
   5  -2 -10   74.68   17.90
   5  -2 -10  100.51   36.26
   5  -2 -10   51.76   14.85
  -5   2  10   57.07    9.58
  -5   2  10   73.15   13.73
  -5   2  10   42.06   28.03
   4  -2 -10  292.28   31.08
   4  -2 -10  289.56   56.53
   4  -2 -10  302.10   30.69
  -4   2  10  292.00   25.27
  -4   2  10  313.18   24.37
  -4   2  10  304.42   52.61
   3  -2 -10   43.58   13.53
   3  -2 -10   50.56   12.99
   3  -2 -10   56.69   28.76
  -3   2  10   49.13   10.13
  -3   2  10   39.24    9.87
  -3   2  10   26.38   23.59
   2  -2 -10  314.00   31.29
   2  -2 -10  331.45   56.04
   2  -2 -10  343.50   30.71
  -2   2  10  353.86   27.49
  -2   2  10  288.10   25.98
  -2   2  10  334.95   45.99
   1  -2 -10   31.38   23.23
   1  -2 -10   60.49   15.37
   1  -2 -10   66.75   13.83
  -1   2  10   81.25   12.95
  -1   2  10   59.65   20.92
  -1   2  10   76.82   13.98
  -1   2  10   72.04   11.09
   0  -2 -10  208.95   21.21
   0  -2 -10  205.16   27.11
   0  -2 -10  236.17   45.58
   0  -2 -10  200.50   17.20
   0  -2 -10  221.75   23.12
   0   2  10  201.99   19.02
   0   2  10  207.07   21.26
   0   2  10  180.43   17.38
   0   2  10  172.13   34.32
  -1  -2 -10   27.74    9.85
  -1  -2 -10   19.74    9.21
  -1  -2 -10   16.01   16.27
  -1  -2 -10   42.60    8.92
  -1  -2 -10   24.80    6.44
   1   2  10   27.85    7.46
   1   2  10   27.07   18.69
   1   2  10   31.42   10.68
  -2  -2 -10  185.90   21.40
  -2  -2 -10  203.45   18.68
  -2  -2 -10  201.70   17.06
  -2  -2 -10  196.63   41.75
   2   2  10  232.49   37.95
   2   2  10  222.52   23.78
   2   2  10  211.47   19.82
  -3  -2 -10   75.76   12.16
  -3  -2 -10   61.11    9.04
  -3  -2 -10   16.73   24.90
  -3  -2 -10   53.78   13.55
   3   2  10   97.33   19.02
   3   2  10   49.22   21.25
   3   2  10   74.51   12.50
  -4  -2 -10  201.01   43.26
  -4  -2 -10  260.70   24.62
  -4  -2 -10  232.93   20.64
  -4  -2 -10  269.71   19.41
   4   2  10  216.50   36.40
   4   2  10  240.00   27.90
   4   2  10  294.57   23.91
  -5  -2 -10   40.84    7.76
  -5  -2 -10   35.83    5.83
  -5  -2 -10   35.43    9.78
   5   2  10   10.22   16.39
   5   2  10   47.50   10.48
   5   2  10   30.96   11.92
  -6  -2 -10  247.15   19.19
  -6  -2 -10  251.53   21.30
  -6  -2 -10  220.24   45.33
  -6  -2 -10  221.19   16.02
   6   2  10  221.17   22.20
   6   2  10  166.67   29.55
   6   2  10  192.82   35.38
  -7  -2 -10   -1.37    3.83
  -7  -2 -10   25.90   28.62
  -7  -2 -10   -1.70    4.27
   7   2  10    9.02    7.40
   7   2  10   -4.55    7.34
   7   2  10   48.50   21.38
  -8  -2 -10  110.32    9.94
   8   2  10  176.20   22.41
   8   2  10  146.25   34.94
   8   2  10  125.00   26.25
  -9  -2 -10   30.42   34.22
   9   2  10  -14.33   24.59
   9   2  10   -2.97    5.90
   9   2  10   11.98   13.36
   9  -3 -10   75.98   20.49
   9  -3 -10   41.92   53.23
   9  -3 -10   61.17   17.14
  -9   3  10   41.69   45.35
  -9   3  10  101.74   15.61
   8  -3 -10   -3.23   45.22
   8  -3 -10   27.33   12.11
   8  -3 -10   47.47   14.89
  -8   3  10   50.84   11.03
  -8   3  10   35.04   36.72
   7  -3 -10   49.28   16.39
   7  -3 -10  100.89   20.18
  -7   3  10  104.87   12.38
  -7   3  10  120.14   10.98
  -7   3  10   89.69   40.26
   6  -3 -10   76.23   16.48
   6  -3 -10  104.23   20.48
   6  -3 -10   45.70   33.08
  -6   3  10  107.16   13.20
  -6   3  10   86.04   32.95
  -6   3  10   76.49   10.09
   5  -3 -10  188.75   48.44
   5  -3 -10  220.85   29.04
   5  -3 -10  205.84   29.41
  -5   3  10  200.70   42.30
  -5   3  10  270.13   20.12
  -5   3  10  166.92   19.69
   4  -3 -10   98.78   19.66
   4  -3 -10   94.02   30.81
   4  -3 -10   45.82   13.06
  -4   3  10   65.06   11.62
  -4   3  10   66.41   11.46
  -4   3  10   93.04   28.41
   3  -3 -10  774.22   54.80
   3  -3 -10  543.15   73.01
   3  -3 -10  630.79   51.56
  -3   3  10  630.19   46.40
  -3   3  10  763.90   48.02
  -3   3  10  618.82   67.80
   2  -3 -10  139.18   21.32
   2  -3 -10  153.00   21.42
   2  -3 -10  102.80   34.28
  -2   3  10  135.67   15.44
  -2   3  10  120.87   29.08
  -2   3  10  121.93   15.88
   1  -3 -10  911.61   85.86
   1  -3 -10  927.01   63.38
   1  -3 -10  835.08   61.90
  -1   3  10  890.71   59.58
  -1   3  10  797.06   78.51
  -1   3  10  820.69   56.42
   0  -3 -10  187.24   23.78
   0  -3 -10  154.12   22.32
   0  -3 -10  156.31   38.01
   0  -3 -10  157.71   14.74
   0  -3 -10  163.85   16.20
   0   3  10  154.64   17.90
   0   3  10  149.66   14.85
   0   3  10  139.27   33.10
  -1  -3 -10  595.33   44.41
  -1  -3 -10  551.10   39.90
  -1  -3 -10  607.50   38.85
  -1  -3 -10  533.98   64.05
  -1  -3 -10  579.07   44.65
   1   3  10  526.10   38.26
   1   3  10  412.74   53.46
   1   3  10  629.90   44.35
   1   3  10  581.73   40.35
  -2  -3 -10  165.05   14.36
  -2  -3 -10  162.80   38.19
  -2  -3 -10  146.16   15.03
  -2  -3 -10  189.62   20.20
   2   3  10  169.65   14.46
   2   3  10  156.56   19.52
   2   3  10  107.64   26.55
   2   3  10  144.01   15.95
  -3  -3 -10  422.43   34.24
  -3  -3 -10  427.04   54.98
  -3  -3 -10  462.88   29.72
  -3  -3 -10  403.28   31.02
   3   3  10  347.42   43.89
   3   3  10  395.62   35.65
   3   3  10  395.51   31.28
   3   3  10  463.23   29.83
  -4  -3 -10   78.52   13.30
  -4  -3 -10   89.89   12.24
  -4  -3 -10   81.29    9.03
   4   3  10   84.76   13.72
   4   3  10   91.51    9.69
   4   3  10  120.48   21.54
   4   3  10  122.37   27.60
  -5  -3 -10  299.59   20.67
  -5  -3 -10  328.02   50.90
  -5  -3 -10  267.77   23.58
  -5  -3 -10  294.07   22.10
   5   3  10  276.64   20.69
   5   3  10  290.16   39.04
   5   3  10  315.14   30.93
   5   3  10  258.26   23.83
  -6  -3 -10   19.32   22.87
  -6  -3 -10   14.95    3.39
  -6  -3 -10    9.30    4.83
   6   3  10    4.79    5.21
   6   3  10   12.22   16.75
   6   3  10   18.20   10.79
  -7  -3 -10  164.60   11.72
  -7  -3 -10  187.41   43.06
   7   3  10  141.67   30.76
   7   3  10  146.68   26.89
   7   3  10  188.10   18.55
  -8  -3 -10  -26.42   28.55
   8   3  10   19.04   20.91
   8   3  10   14.24    7.04
   8   3  10   18.87   11.51
  -9  -3 -10   47.43   36.84
   9   3  10   89.22   29.40
   9   3  10   53.46   19.34
   9   3  10  129.48   18.70
   9  -4 -10   89.69   20.43
   9  -4 -10   28.10   13.75
   9  -4 -10  102.37   52.37
  -9   4  10  -18.97   44.35
   8  -4 -10   97.12   20.85
   8  -4 -10   71.85   55.77
   8  -4 -10  105.53   22.91
  -8   4  10  124.96   44.03
   7  -4 -10   10.73    8.59
   7  -4 -10   18.03    9.83
  -7   4  10   31.18    9.35
  -7   4  10   22.93    8.74
  -7   4  10   34.72   33.83
  -7   4  10   31.65    8.36
   6  -4 -10   96.88   19.04
   6  -4 -10  111.99   21.78
   6  -4 -10   72.14   36.04
  -6   4  10   85.53   14.75
  -6   4  10   73.75   13.88
  -6   4  10   85.99   35.96
  -6   4  10   74.29   13.59
   5  -4 -10   73.50   18.46
   5  -4 -10   93.05   17.76
   5  -4 -10  110.07   40.79
  -5   4  10  112.68   15.99
  -5   4  10  124.76   16.27
  -5   4  10  130.70   38.23
   4  -4 -10  246.42   25.17
   4  -4 -10  263.05   54.88
   4  -4 -10  208.28   29.66
  -4   4  10  209.85   20.41
  -4   4  10  258.70   47.80
  -4   4  10  233.82   20.56
   3  -4 -10   71.88   33.06
   3  -4 -10   84.02   16.14
   3  -4 -10   63.29   15.70
  -3   4  10   69.82   12.49
  -3   4  10   76.47   29.59
  -3   4  10   79.09   12.16
   2  -4 -10  215.61   26.84
   2  -4 -10  185.13   44.87
   2  -4 -10  172.16   26.42
  -2   4  10  224.55   42.18
  -2   4  10  196.65   18.99
  -2   4  10  192.64   17.90
   1  -4 -10   21.79   23.53
   1  -4 -10   42.72    8.61
   1  -4 -10   33.91   10.98
   1  -4 -10   17.53    9.18
  -1   4  10   31.99    8.43
  -1   4  10   15.70    5.64
  -1   4  10   40.82   23.43
  -1   4  10   45.49   11.08
   0  -4 -10  548.62   63.28
   0  -4 -10  503.35   36.65
   0  -4 -10  488.78   34.78
   0  -4 -10  538.28   40.91
   0  -4 -10  517.82   40.71
   0   4  10  482.54   36.08
   0   4  10  486.34   43.63
   0   4  10  514.98   39.10
   0   4  10  392.64   52.49
   0   4  10  499.67   35.04
  -1  -4 -10  119.05   13.43
  -1  -4 -10  122.98   34.15
  -1  -4 -10  130.93   19.56
  -1  -4 -10  149.76   21.07
  -1  -4 -10  108.66   13.78
   1   4  10  113.52   12.20
   1   4  10   97.73   27.18
   1   4  10  138.47   14.26
   1   4  10  148.62   20.98
   1   4  10  120.71   21.26
  -2  -4 -10  655.64   48.07
  -2  -4 -10  700.66   46.93
  -2  -4 -10  833.27   77.14
  -2  -4 -10  796.51   52.46
   2   4  10  653.67   63.86
   2   4  10  720.33   47.07
   2   4  10  732.01   52.94
  -3  -4 -10  148.39   18.78
  -3  -4 -10  132.19   13.53
  -3  -4 -10  131.30   12.25
   3   4  10  118.75   26.80
   3   4  10  128.22   20.93
   3   4  10  115.35   11.99
  -4  -4 -10  398.94   29.88
  -4  -4 -10  407.05   29.07
  -4  -4 -10  446.57   32.33
  -4  -4 -10  402.11   53.90
   4   4  10  458.18   32.20
   4   4  10  469.97   38.54
   4   4  10  380.60   28.84
   4   4  10  460.74   47.20
  -5  -4 -10   52.31    7.25
  -5  -4 -10   61.57    8.09
  -5  -4 -10   43.61    7.94
  -5  -4 -10    6.69   23.44
   5   4  10   69.04    8.72
   5   4  10   43.66   18.02
   5   4  10   52.59   13.97
   5   4  10   54.85   10.47
  -6  -4 -10  247.47   46.45
  -6  -4 -10  307.29   19.51
  -6  -4 -10  313.61   21.89
   6   4  10  313.20   33.05
   6   4  10  351.92   41.83
   6   4  10  307.68   25.82
   6   4  10  321.16   22.09
  -7  -4 -10   26.08   28.34
   7   4  10    3.55   17.22
   7   4  10   20.43    4.27
   7   4  10   20.60    7.43
   7   4  10    9.00    9.68
  -8  -4 -10  136.26   39.82
   8   4  10  109.60   23.60
   8   4  10  149.68   19.14
   8   4  10  128.57   27.98
  -9  -4 -10   34.80   33.86
   9   4  10   12.99    6.88
   9   4  10    4.25   10.38
   9   4  10   10.33   20.33
   9  -5 -10  102.89   64.10
   9  -5 -10  116.39   24.10
   9  -5 -10  116.67   22.75
  -9   5  10   54.42   12.79
  -9   5  10   49.17   44.68
  -9   5  10   66.91   13.37
   8  -5 -10  126.93   54.74
   8  -5 -10   59.34   18.01
   8  -5 -10   50.22   15.45
  -8   5  10   42.63   10.11
  -8   5  10   49.69   12.70
  -8   5  10  104.65   48.87
   7  -5 -10  114.21   23.18
   7  -5 -10   90.11   19.18
   7  -5 -10   71.21   51.02
  -7   5  10  102.15   15.70
  -7   5  10  128.02   18.29
  -7   5  10   93.41   17.47
  -7   5  10   81.80   44.63
   6  -5 -10   14.64   10.45
   6  -5 -10   61.65   40.58
   6  -5 -10   38.45   12.99
  -6   5  10   30.73    9.88
  -6   5  10   10.76   27.99
  -6   5  10   30.22    8.47
  -6   5  10   45.17   11.08
   5  -5 -10  211.81   30.70
   5  -5 -10  161.25   45.91
   5  -5 -10  187.90   26.04
  -5   5  10  180.80   18.18
  -5   5  10  178.26   18.11
  -5   5  10  167.34   20.84
  -5   5  10  150.43   42.79
   4  -5 -10   96.69   19.36
   4  -5 -10  113.16   19.10
   4  -5 -10   98.25   40.01
  -4   5  10   86.02   13.13
  -4   5  10   80.48   31.67
  -4   5  10   83.34   13.96
   3  -5 -10  190.10   48.40
   3  -5 -10  221.60   28.04
   3  -5 -10  262.23   27.28
  -3   5  10  244.09   46.50
  -3   5  10  225.95   21.36
  -3   5  10  223.74   20.28
   2  -5 -10  128.84   21.56
   2  -5 -10  152.00   41.01
   2  -5 -10  142.75   20.78
  -2   5  10  133.31   14.17
  -2   5  10  112.16   16.12
  -2   5  10  131.06   35.15
   1  -5 -10  560.07   43.43
   1  -5 -10  519.82   38.91
   1  -5 -10  607.71   67.39
   1  -5 -10  511.43   41.52
  -1   5  10  483.57   44.49
  -1   5  10  466.24   36.33
  -1   5  10  567.97   38.64
  -1   5  10  515.41   60.91
   0  -5 -10  204.05   24.54
   0  -5 -10  150.27   16.28
   0  -5 -10  136.71   37.66
   0  -5 -10  179.41   24.31
   0   5  10  203.80   40.09
   0   5  10  184.47   23.03
   0   5  10  142.54   14.77
   0   5  10  157.68   15.77
  -1  -5 -10  600.56   43.35
  -1  -5 -10  663.90   47.45
  -1  -5 -10  627.75   42.14
  -1  -5 -10  564.42   67.38
  -1  -5 -10  663.69   48.04
   1   5  10  568.89   61.72
   1   5  10  648.83   43.66
   1   5  10  593.06   46.54
   1   5  10  645.44   42.32
  -2  -5 -10   67.66   10.58
  -2  -5 -10   56.32    8.91
  -2  -5 -10   53.57   12.15
  -2  -5 -10   74.44   27.17
   2   5  10   53.06    9.04
   2   5  10   83.39   23.96
   2   5  10   51.91   12.66
   2   5  10   77.81   15.64
   2   5  10   68.57   11.39
  -3  -5 -10  419.08   54.66
  -3  -5 -10  366.03   27.78
  -3  -5 -10  363.35   28.46
  -3  -5 -10  393.45   30.78
   3   5  10  416.15   29.91
   3   5  10  329.41   44.56
   3   5  10  418.58   28.43
   3   5  10  461.90   36.39
  -4  -5 -10   22.85    6.52
  -4  -5 -10   33.10    6.19
  -4  -5 -10    3.66   21.23
  -4  -5 -10   19.40    5.37
   4   5  10   43.66   18.31
   4   5  10   37.61    8.25
   4   5  10   25.17    5.79
   4   5  10   52.87   14.27
  -5  -5 -10  299.85   22.12
  -5  -5 -10  311.75   48.31
  -5  -5 -10  292.16   19.51
   5   5  10  335.34   38.84
   5   5  10  313.17   22.30
   5   5  10  302.48   30.80
  -6  -5 -10   14.88    4.05
  -6  -5 -10   37.01   24.94
   6   5  10   20.58    6.92
   6   5  10   16.54    4.43
   6   5  10   13.83   10.52
   6   5  10   18.69   15.00
  -7  -5 -10  285.44   45.93
   7   5  10  209.31   19.96
   7   5  10  185.56   31.84
   7   5  10  214.77   27.31
   7   5  10  246.36   17.06
  -8  -5 -10  -20.73   26.67
   8   5  10   10.23    6.23
   8   5  10   17.80   17.89
   8   5  10    8.64    3.07
   8   5  10   19.63   11.41
  -9  -5 -10  206.17   42.44
   9   5  10  152.73   28.11
   9   5  10  128.13   17.54
   9   5  10  108.92   27.50
   8  -6 -10   61.09   17.34
   8  -6 -10   85.09   56.73
   8  -6 -10   64.36   18.10
  -8   6  10   61.41   49.55
  -8   6  10   90.51   14.58
  -8   6  10   55.80   13.52
   7  -6 -10  -25.55   48.37
   7  -6 -10   28.60   13.96
   7  -6 -10   57.76   15.54
  -7   6  10   67.88   41.87
  -7   6  10   35.98   10.97
  -7   6  10   54.56   11.24
   6  -6 -10  155.72   24.17
   6  -6 -10  137.77   25.05
   6  -6 -10   96.86   46.96
  -6   6  10   89.90   21.10
  -6   6  10  107.18   43.78
  -6   6  10  125.96   17.29
  -6   6  10  164.46   21.40
   5  -6 -10   35.32   12.22
   5  -6 -10   45.52   14.58
   5  -6 -10    6.61   36.21
  -5   6  10   38.72   12.08
  -5   6  10   31.22    8.93
  -5   6  10    7.29   28.26
  -5   6  10   34.53    9.46
   4  -6 -10  149.70   24.45
   4  -6 -10   99.55   39.75
   4  -6 -10  106.23   19.44
  -4   6  10  117.04   15.36
  -4   6  10  111.51   38.42
  -4   6  10  123.28   17.58
   3  -6 -10  132.38   20.62
   3  -6 -10  147.19   40.38
   3  -6 -10   95.52   19.53
  -3   6  10  118.43   16.43
  -3   6  10  117.55   33.56
  -3   6  10  105.70   14.46
   2  -6 -10  382.81   34.13
   2  -6 -10  308.50   57.49
   2  -6 -10  325.82   31.19
  -2   6  10  358.09   27.58
  -2   6  10  388.70   59.40
  -2   6  10  347.05   28.27
   1  -6 -10  104.41   36.08
   1  -6 -10  141.64   20.52
   1  -6 -10  212.35   22.23
   1  -6 -10  143.37   16.05
  -1   6  10  169.39   18.10
  -1   6  10  149.73   15.67
  -1   6  10  143.82   14.94
  -1   6  10  114.13   31.88
   0  -6 -10  285.50   25.79
   0  -6 -10  212.51   23.11
   0  -6 -10  207.01   20.76
   0  -6 -10  209.12   46.41
   0   6  10  228.10   20.02
   0   6  10  286.00   22.22
   0   6  10  210.17   42.97
   0   6  10  253.79   23.45
  -1  -6 -10   50.20   11.51
  -1  -6 -10   60.71   28.21
  -1  -6 -10   45.65    9.41
  -1  -6 -10   31.69   10.02
   1   6  10   57.45   11.74
   1   6  10   41.66    8.09
   1   6  10   46.33    9.66
   1   6  10   76.78   25.25
  -2  -6 -10  338.15   28.83
  -2  -6 -10  342.69   56.67
  -2  -6 -10  329.75   26.45
   2   6  10  329.24   29.38
   2   6  10  326.34   44.00
   2   6  10  384.60   27.70
   2   6  10  366.02   26.29
  -3  -6 -10   71.73   10.06
  -3  -6 -10   59.61   27.95
  -3  -6 -10   83.88   12.16
   3   6  10   43.59   19.55
   3   6  10  103.26   11.99
   3   6  10  112.77   19.64
   3   6  10   89.37   13.18
   3   6  10   93.31   15.59
  -4  -6 -10  382.48   26.72
  -4  -6 -10  393.94   53.53
   4   6  10  385.77   35.04
   4   6  10  355.00   43.13
   4   6  10  366.56   26.80
   4   6  10  347.42   27.87
  -5  -6 -10   21.28   25.74
  -5  -6 -10   59.81    8.66
   5   6  10   32.55    6.91
   5   6  10   25.54   16.77
   5   6  10   54.58   14.54
   5   6  10   40.79    8.56
  -6  -6 -10  200.22   38.71
  -6  -6 -10  165.00   14.73
   6   6  10  186.61   29.97
   6   6  10  175.64   14.89
   6   6  10  187.18   23.69
  -7  -6 -10   23.98   23.73
   7   6  10   22.38    5.06
   7   6  10    6.03    8.37
   7   6  10   22.34    6.70
   7   6  10    5.36   16.31
  -8  -6 -10  170.61   34.63
   8   6  10  119.43   24.19
   8   6  10  173.03   16.42
   8   6  10  145.26   12.41
   8   6  10  136.88   25.57
  -9  -6 -10   39.69   24.86
   9   6  10    9.63    2.92
   9   6  10  -10.24   15.95
   9   6  10   -0.16    9.06
   9   6  10    5.79    5.44
   8  -7 -10   56.81   18.63
   8  -7 -10   15.90   46.00
   8  -7 -10   31.49   12.30
  -8   7  10  -53.51   46.17
  -8   7  10   24.01    9.47
  -8   7  10   33.63    9.09
   7  -7 -10   97.20   22.93
   7  -7 -10  105.65   21.66
   7  -7 -10  102.56   55.48
  -7   7  10  134.37   19.55
  -7   7  10  118.26   44.55
  -7   7  10  119.95   16.94
   6  -7 -10   26.61   42.28
   6  -7 -10   58.76   15.57
   6  -7 -10   55.94   18.14
  -6   7  10   86.69   15.87
  -6   7  10   86.22   13.72
  -6   7  10  114.93   40.70
   5  -7 -10  266.34   61.32
   5  -7 -10  248.96   33.67
   5  -7 -10  174.76   26.41
  -5   7  10  185.83   51.11
  -5   7  10  211.77   22.05
  -5   7  10  216.93   20.43
   4  -7 -10   29.47   11.75
   4  -7 -10   10.14    8.64
   4  -7 -10    1.81   31.19
  -4   7  10    6.76    6.59
  -4   7  10   18.63   30.60
  -4   7  10    8.11    5.66
   3  -7 -10  116.48   45.37
   3  -7 -10  194.77   25.78
   3  -7 -10  213.78   29.75
  -3   7  10  178.65   17.73
  -3   7  10  158.31   40.24
  -3   7  10  187.57   19.35
   2  -7 -10   35.66   33.26
   2  -7 -10   82.78   17.65
   2  -7 -10   75.67   14.84
  -2   7  10   48.85   28.63
  -2   7  10   80.60   13.25
  -2   7  10   49.01    9.58
   1  -7 -10  372.94   32.22
   1  -7 -10  297.22   28.99
   1  -7 -10  343.57   62.09
   1  -7 -10  338.18   27.65
  -1   7  10  313.12   27.65
  -1   7  10  257.95   48.43
  -1   7  10  306.92   25.42
  -1   7  10  327.32   26.59
   0  -7 -10   15.79    7.85
   0  -7 -10   24.60    7.16
   0  -7 -10   24.56   10.97
   0  -7 -10  -28.35   22.57
   0   7  10   41.64   25.05
   0   7  10   13.64    6.73
   0   7  10    3.04    5.08
   0   7  10    8.16    5.36
  -1  -7 -10  239.38   22.96
  -1  -7 -10  214.50   19.66
  -1  -7 -10  207.16   21.88
   1   7  10  199.94   19.02
   1   7  10  243.20   19.42
   1   7  10  213.52   21.04
   1   7  10  202.37   40.69
  -2  -7 -10   57.57    9.69
  -2  -7 -10   29.55   23.32
  -2  -7 -10   54.40   10.57
   2   7  10   38.63    8.13
   2   7  10   46.18    9.81
   2   7  10   63.25   26.95
   2   7  10   50.93   10.98
  -3  -7 -10  349.42   26.22
  -3  -7 -10  334.71   54.42
   3   7  10  407.03   27.70
   3   7  10  377.84   28.08
   3   7  10  347.24   46.19
   3   7  10  320.56   29.50
  -4  -7 -10   56.09   27.79
   4   7  10   55.14    9.81
   4   7  10   79.24   10.46
   4   7  10   72.03   17.19
   4   7  10   46.47   20.25
  -5  -7 -10  135.36   35.19
   5   7  10  198.07   24.74
   5   7  10  182.77   16.64
   5   7  10  196.65   16.44
   5   7  10  185.90   32.69
  -6  -7 -10   23.95   24.67
   6   7  10   21.91    5.81
   6   7  10   36.84   13.28
   6   7  10   14.90    6.11
   6   7  10   11.57   14.98
  -7  -7 -10  167.01   35.55
   7   7  10  209.72   31.37
   7   7  10  180.73   15.96
   7   7  10  214.53   29.76
  -8  -7 -10   15.43   20.66
   8   7  10    5.01    7.38
   8   7  10    4.23   13.43
   8   7  10   13.47    4.27
   8   7  10    0.67    4.37
   7  -8 -10   60.61   18.56
   7  -8 -10    3.99   62.09
   7  -8 -10   66.10   17.47
  -7   8  10   54.13   39.37
  -7   8  10   48.72   12.97
  -7   8  10   60.33   12.49
   6  -8 -10  102.93   22.90
   6  -8 -10  105.95   57.25
   6  -8 -10  123.53   21.83
  -6   8  10  104.04   15.87
  -6   8  10   81.97   40.50
  -6   8  10   95.88   16.79
   5  -8 -10  110.38   19.68
   5  -8 -10   80.39   39.96
   5  -8 -10  113.18   24.10
  -5   8  10  180.80   53.84
  -5   8  10   98.50   15.04
  -5   8  10   85.13   16.45
   4  -8 -10  144.69   51.67
   4  -8 -10  138.15   24.83
   4  -8 -10  139.23   22.35
  -4   8  10  176.23   48.09
  -4   8  10  125.74   19.22
  -4   8  10  143.56   18.17
   3  -8 -10   34.49   13.36
   3  -8 -10  -22.88   36.83
   3  -8 -10   53.22   13.17
  -3   8  10   29.13    8.94
  -3   8  10   47.23    9.57
  -3   8  10   11.01   30.61
   2  -8 -10  233.42   26.39
   2  -8 -10  245.60   56.90
   2  -8 -10  209.82   23.27
  -2   8  10  229.11   20.67
  -2   8  10  232.76   22.35
  -2   8  10  210.48   50.73
   1  -8 -10   61.78   37.05
   1  -8 -10   70.48   14.27
   1  -8 -10   82.77   16.74
  -1   8  10   70.49   11.83
  -1   8  10  100.48   34.47
  -1   8  10   92.87   14.65
  -1   8  10  107.40   15.94
   0  -8 -10  342.27   60.62
   0  -8 -10  265.69   25.61
   0  -8 -10  269.26   24.14
   0  -8 -10  292.75   27.91
   0   8  10  225.90   22.22
   0   8  10  304.54   24.82
   0   8  10  279.63   24.86
   0   8  10  291.95   51.99
  -1  -8 -10   37.00    8.50
  -1  -8 -10   37.92   34.19
  -1  -8 -10   16.85    8.76
   1   8  10   21.85    7.47
   1   8  10   -5.77   21.34
   1   8  10   22.21    7.03
   1   8  10   60.64   10.65
  -2  -8 -10  339.83   56.14
  -2  -8 -10  262.06   22.90
  -2  -8 -10  264.78   21.25
   2   8  10  229.71   23.56
   2   8  10  305.59   24.11
   2   8  10  259.85   22.27
   2   8  10  338.52   50.75
  -3  -8 -10   35.79    5.30
  -3  -8 -10   80.72   31.79
   3   8  10   61.69   10.35
   3   8  10   54.91   11.24
   3   8  10   52.85   24.97
   3   8  10   42.90    8.43
  -4  -8 -10  164.15   40.54
   4   8  10  191.01   16.56
   4   8  10  182.51   34.84
   4   8  10  164.00   16.84
   4   8  10  167.87   18.46
  -5  -8 -10   46.37   27.76
   5   8  10   32.15    8.00
   5   8  10   22.96    6.39
   5   8  10   36.20   13.36
   5   8  10   31.42   18.29
  -6  -8 -10  278.57   44.13
   6   8  10  233.35   19.55
   6   8  10  210.76   31.05
   6   8  10  193.95   26.55
   6   8  10  225.36   18.93
  -7  -8 -10   43.85   22.84
   7   8  10   34.39   15.70
   7   8  10   23.95   11.85
   7   8  10   42.13    8.41
   7   8  10   28.39    6.59
  -8  -8 -10   89.14   17.28
   8   8  10  133.76   12.32
   8   8  10   94.61   13.26
   8   8  10  118.83   24.05
   7  -9 -10   84.24   71.88
   7  -9 -10  116.17   21.90
  -7   9  10  127.68   20.29
  -7   9  10   56.78   59.08
   6  -9 -10   16.00   59.79
   6  -9 -10   65.21   19.56
   6  -9 -10   37.67   12.75
  -6   9  10   23.82   10.47
  -6   9  10   39.01    9.70
  -6   9  10   20.55   48.33
   5  -9 -10  171.86   24.46
   5  -9 -10  154.88   28.06
   5  -9 -10   92.91   59.02
  -5   9  10  126.54   17.84
  -5   9  10  106.95   18.95
  -5   9  10  143.55   47.81
   4  -9 -10   53.26   14.05
   4  -9 -10   69.34   49.55
   4  -9 -10   66.51   17.98
  -4   9  10   -2.79   41.67
  -4   9  10   85.54   15.92
  -4   9  10   69.66   12.60
   3  -9 -10  103.38   21.01
   3  -9 -10   86.86   17.49
   3  -9 -10  117.93   52.74
  -3   9  10  103.32   16.96
  -3   9  10   93.70   14.81
  -3   9  10  107.59   42.33
   2  -9 -10   10.58    7.71
   2  -9 -10   16.64   11.03
   2  -9 -10   -2.20   30.25
  -2   9  10   10.56    5.88
  -2   9  10   17.27    7.91
  -2   9  10    6.70    4.68
  -2   9  10   39.99   35.51
   1  -9 -10  131.72   18.97
   1  -9 -10  121.12   42.40
   1  -9 -10  116.16   20.75
  -1   9  10  124.33   17.46
  -1   9  10   85.56   32.15
  -1   9  10  106.36   16.94
  -1   9  10  126.75   16.61
   0  -9 -10   55.40   12.31
   0  -9 -10   56.22   11.75
   0  -9 -10   42.23   10.27
   0  -9 -10   63.03   37.66
   0   9  10   63.78   11.01
   0   9  10   56.98   12.27
   0   9  10   23.86   27.27
   0   9  10   53.63   11.04
  -1  -9 -10  329.04   27.98
  -1  -9 -10  237.82   53.56
  -1  -9 -10  309.52   25.16
   1   9  10  335.95   27.00
   1   9  10  288.05   25.69
   1   9  10  293.37   25.04
   1   9  10  281.42   52.42
  -2  -9 -10   38.00    8.28
  -2  -9 -10   33.67   30.76
  -2  -9 -10   32.80    6.36
   2   9  10    3.08   25.26
   2   9  10   31.19    8.00
   2   9  10   26.55    7.75
   2   9  10   29.97    8.28
  -3  -9 -10  204.68   45.97
   3   9  10  311.74   49.01
   3   9  10  222.16   20.71
   3   9  10  289.46   22.75
   3   9  10  215.68   21.53
  -4  -9 -10   17.31   27.17
   4   9  10    4.43    5.12
   4   9  10   34.52   23.21
   4   9  10    1.35    5.53
   4   9  10    3.64    4.28
  -5  -9 -10  203.97   41.11
   5   9  10  220.65   19.07
   5   9  10  186.36   18.07
   5   9  10  183.55   34.53
   5   9  10  191.72   20.02
  -6  -9 -10   16.26   25.32
   6   9  10   30.61   17.41
   6   9  10   47.85   15.65
   6   9  10   13.09    6.26
   6   9  10   45.77    8.43
  -7  -9 -10  106.84   24.21
   7   9  10  129.69   24.65
   7   9  10  108.54   14.17
   7   9  10  117.92   18.44
   7   9  10  116.72   12.63
   5 -10 -10   70.03   15.33
   5 -10 -10  -23.49   56.62
   5 -10 -10   49.42   16.70
  -5  10  10   41.34   12.53
  -5  10  10   82.47   46.26
  -5  10  10   42.72   10.23
   4 -10 -10  -36.65   51.19
   4 -10 -10  140.99   25.07
   4 -10 -10  187.81   24.89
  -4  10  10   60.68   53.13
  -4  10  10  154.01   19.36
  -4  10  10  111.61   18.97
   3 -10 -10  -37.97   46.78
   3 -10 -10   67.82   17.24
   3 -10 -10   92.64   16.34
  -3  10  10   42.80   45.82
  -3  10  10   35.91    9.51
  -3  10  10   57.43   13.19
   2 -10 -10  133.67   22.94
   2 -10 -10   -1.64   39.81
   2 -10 -10  127.91   18.99
  -2  10  10  107.95   17.31
  -2  10  10  123.43   17.06
  -2  10  10  107.85   16.08
  -2  10  10  102.47   47.76
   1 -10 -10    7.51   38.32
   1 -10 -10   29.22   10.63
   1 -10 -10   34.73    9.80
  -1  10  10   60.45   12.95
  -1  10  10   53.84   10.06
  -1  10  10   35.02    9.09
  -1  10  10   70.17   40.02
   0 -10 -10  205.14   22.47
   0 -10 -10  180.90   19.43
   0  10  10  182.88   18.01
   0  10  10  240.60   22.01
   0  10  10  146.75   45.07
   0  10  10  183.83   19.01
  -1 -10 -10  -13.24   31.11
  -1 -10 -10   49.86   10.75
   1  10  10   43.07   29.99
   1  10  10   83.55   12.42
   1  10  10   77.55   14.11
   1  10  10   55.62   11.22
  -2 -10 -10  147.52   12.45
  -2 -10 -10  110.01   44.01
   2  10  10  154.21   18.84
   2  10  10  117.57   17.43
   2  10  10  218.53   44.73
   2  10  10  156.26   15.27
  -3 -10 -10   16.13   32.12
   3  10  10    4.26    4.95
   3  10  10  -22.58   26.74
   3  10  10   14.65    5.78
   3  10  10   -0.02    4.65
  -4 -10 -10  100.20   38.94
   4  10  10  204.44   18.85
   4  10  10  137.17   36.72
   4  10  10  202.56   18.57
  -5 -10 -10    5.70   29.72
   5  10  10    1.67   22.64
   5  10  10   25.35    7.25
   5  10  10   20.85    6.64
   5  10  10   22.84    7.69
   6  10  10  147.90   27.09
   6  10  10  135.55   14.82
   6  10  10  148.38   15.66
   6  10  10  156.56   26.87
   4 -11 -10   31.88   11.31
   4 -11 -10   36.91   49.94
   4 -11 -10   26.68   12.09
  -4  11  10   22.81   50.69
  -4  11  10   24.46    8.44
  -4  11  10   28.70   11.08
   3 -11 -10  191.45   29.42
   3 -11 -10  141.09   19.20
   3 -11 -10  -36.03   48.39
  -3  11  10  136.21   18.96
  -3  11  10   71.36   53.96
  -3  11  10  114.38   20.15
   2 -11 -10    6.35   49.44
   2 -11 -10   42.17   13.27
   2 -11 -10   60.63   11.77
  -2  11  10   37.74   11.39
  -2  11  10   31.30    9.36
  -2  11  10   53.12   10.54
  -2  11  10   24.23   45.48
   1 -11 -10  154.49   22.98
   1 -11 -10  115.94   15.78
   1 -11 -10  -39.81   43.44
  -1  11  10  106.17   14.23
  -1  11  10  106.99   16.34
  -1  11  10  124.04   50.17
  -1  11  10  105.73   18.34
   0 -11 -10   37.47   10.59
   0 -11 -10   17.39    6.62
   0 -11 -10  -18.66   36.82
   0  11  10   11.97   38.45
   0  11  10   16.23    7.14
   0  11  10   23.20    9.04
   0  11  10   32.40    7.63
  -1 -11 -10  -16.81   40.78
   1  11  10   85.20   14.20
   1  11  10   98.85   15.90
   1  11  10   70.23   39.71
  -2 -11 -10    3.96   38.61
   2  11  10   19.78    5.48
   2  11  10    6.17    7.32
   2  11  10   14.91    6.66
   2  11  10  -26.73   33.91
  -3 -11 -10   38.64   40.60
   3  11  10  138.24   19.25
   3  11  10  143.02   45.06
   3  11  10  138.54   18.03
   3  11  10  145.09   13.63
  -4 -11 -10   72.90   41.01
   4  11  10   45.11    9.70
   4  11  10   28.43    6.64
   4  11  10    0.69   30.74
   4  11  10   32.93    9.16
   0 -12 -10  -29.29   51.25
   0  12  10   65.07   14.42
   0  12  10   73.27   51.86
   1  12  10   17.48   42.20
   3   4 -11  -13.03   49.08
   3   4 -11   27.92   11.08
   3   4 -11   46.01   15.51
  -3  -4  11   24.11    9.39
  -3  -4  11   24.73   37.13
  -3  -4  11   22.90    8.90
   2   4 -11   51.44   51.76
   2   4 -11   86.95   20.67
  -2  -4  11  101.66   20.15
  -2  -4  11   98.53   20.48
  -2  -4  11   61.35   33.31
   1   4 -11    9.25   45.50
   1   4 -11    7.01   10.03
  -1  -4  11   29.58   11.76
  -1  -4  11    9.86   10.99
  -1  -4  11   27.41   26.82
   0   4 -11   63.93   42.57
   0   4 -11  119.31   22.70
   0  -4  11   27.70   36.69
   0  -4  11   77.15   20.09
   0  -4  11   48.34   14.31
  -1   4 -11   14.41   11.40
   1  -4  11   -2.86    8.10
   1  -4  11   12.70   12.93
   1  -4  11   67.96   37.40
  -2   4 -11   81.29   19.69
  -2   4 -11   63.12   47.54
   2  -4  11   63.29   41.12
   2  -4  11   69.30   20.87
   2  -4  11   75.91   18.61
  -3   4 -11   24.18   12.21
  -3   4 -11   -8.66   36.13
   3  -4  11   57.70   18.82
   3  -4  11   64.70   42.06
   3  -4  11   20.26   12.62
  -4   4 -11  -11.03   44.67
   4  -4  11   70.59   42.92
   5   3 -11   80.69   19.76
   5   3 -11   63.74   16.87
  -5  -3  11   77.48   14.75
   4   3 -11   38.53   13.79
   4   3 -11   14.75   11.41
   4   3 -11   -1.81   40.32
  -4  -3  11   30.10   33.76
  -4  -3  11   13.01    9.28
   3   3 -11   70.12   17.92
   3   3 -11   88.33   18.44
   3   3 -11   62.94   43.51
  -3  -3  11   74.49   36.88
  -3  -3  11   69.14   14.42
  -3  -3  11   43.29   12.21
   2   3 -11   42.03   14.38
   2   3 -11   36.78   11.99
   2   3 -11   28.81   31.99
  -2  -3  11   34.64   11.78
  -2  -3  11   23.66   32.18
  -2  -3  11   29.01   10.00
   1   3 -11   89.97   20.18
  -1  -3  11   70.79   17.70
  -1  -3  11  119.04   21.35
  -1  -3  11   83.29   37.66
   0   3 -11   -5.34   38.09
   0   3 -11   12.73   10.27
   0  -3  11   17.54   21.02
   0  -3  11   20.33   10.82
   0  -3  11    7.57   10.18
  -1   3 -11   81.60   17.74
  -1   3 -11  119.91   51.36
   1  -3  11   66.81   19.78
   1  -3  11   36.28   25.96
   1  -3  11   48.93   14.47
  -2   3 -11   56.56   43.14
  -2   3 -11   14.85   10.53
   2  -3  11   19.72   10.77
   2  -3  11   34.90   24.70
   2  -3  11    8.21   11.64
  -3   3 -11   16.31   43.99
  -3   3 -11  114.80   23.30
   3  -3  11  126.02   39.97
   3  -3  11   82.66   19.10
   3  -3  11  141.14   28.66
  -4   3 -11    8.62    9.89
  -4   3 -11  -45.22   40.20
   4  -3  11    6.35    9.61
   4  -3  11    8.40   30.20
   4  -3  11   14.00   14.74
  -5   3 -11   96.03   20.67
  -5   3 -11   18.36   44.74
   5  -3  11   81.11   26.14
   5  -3  11    9.41   41.75
   5  -3  11   98.48   20.26
   6   2 -11   76.34   19.24
   6   2 -11  101.19   21.19
  -6  -2  11   67.24   12.53
  -6  -2  11   93.25   55.88
   5   2 -11   55.15   15.56
   5   2 -11   82.42   52.07
   5   2 -11   35.29   13.94
  -5  -2  11   38.64   30.95
  -5  -2  11   50.30   13.50
   4   2 -11   98.97   47.41
   4   2 -11  125.05   24.42
   4   2 -11  104.39   20.49
  -4  -2  11  131.08   14.36
  -4  -2  11   76.91   36.54
  -4  -2  11  133.48   21.32
   3   2 -11   44.54   15.13
   3   2 -11   86.18   18.13
  -3  -2  11   65.47   14.19
  -3  -2  11   60.01   28.16
  -3  -2  11   82.34   14.89
   2   2 -11   92.18   44.17
   2   2 -11  145.85   25.07
   2   2 -11  104.98   20.10
  -2  -2  11  132.45   21.67
  -2  -2  11  109.36   20.03
  -2  -2  11  148.40   40.61
   1   2 -11   87.23   40.47
   1   2 -11   45.48   14.00
   1   2 -11   22.48   10.43
  -1  -2  11   38.81   14.14
  -1  -2  11   45.88   25.75
  -1  -2  11   39.93   12.78
   0   2 -11  131.66   46.02
   0   2 -11  132.16   23.90
   0  -2  11  112.31   21.85
   0  -2  11  121.88   20.73
   0  -2  11  110.82   37.92
  -1   2 -11   30.26   11.85
  -1   2 -11   43.25   34.66
   1  -2  11   18.82   24.28
   1  -2  11   11.80    9.06
   1  -2  11   22.04   12.48
  -2   2 -11   94.32   42.26
  -2   2 -11  117.41   21.87
   2  -2  11  101.15   35.75
   2  -2  11   75.51   20.33
   2  -2  11   98.43   19.33
  -3   2 -11    3.68    8.77
  -3   2 -11    6.38   33.21
   3  -2  11    3.21    9.70
   3  -2  11   -2.82    6.98
   3  -2  11   -0.43   18.82
  -4   2 -11   61.67   38.08
  -4   2 -11  141.13   23.92
   4  -2  11   92.38   19.74
   4  -2  11  109.28   26.21
   4  -2  11   87.92   33.85
  -5   2 -11   21.32    5.70
  -5   2 -11   21.61   11.75
  -5   2 -11   -8.10   39.45
   5  -2  11   21.35   12.19
   5  -2  11   13.46   28.80
   5  -2  11   11.11   14.06
  -6   2 -11   20.57   43.62
  -6   2 -11  125.33   22.22
   6  -2  11   91.31   26.09
   6  -2  11  163.64   46.19
   6  -2  11   76.71   18.96
   7   1 -11   52.21   16.71
   7   1 -11   60.96   17.30
  -7  -1  11   64.46   12.69
   6   1 -11   49.41   14.59
   6   1 -11   23.88   42.65
   6   1 -11   20.92   11.83
  -6  -1  11   47.13   12.04
  -6  -1  11   87.21   35.33
   5   1 -11  103.70   21.24
   5   1 -11  128.26   51.94
   5   1 -11  115.20   22.20
  -5  -1  11   87.20   36.10
  -5  -1  11   92.24   16.40
   4   1 -11   69.13   18.14
   4   1 -11   74.29   16.94
  -4  -1  11   51.69   11.21
  -4  -1  11    3.93   19.18
  -4  -1  11   83.12   16.34
   3   1 -11  143.45   42.04
   3   1 -11  142.58   23.58
   3   1 -11  118.48   23.12
  -3  -1  11  133.94   20.45
  -3  -1  11  160.40   18.96
  -3  -1  11  173.36   38.05
   2   1 -11   19.88   33.20
   2   1 -11   36.78   12.37
   2   1 -11   31.32   12.50
  -2  -1  11   35.00   11.17
  -2  -1  11   34.68   12.16
  -2  -1  11   68.46   27.48
   1   1 -11  100.12   41.18
   1   1 -11  166.28   25.93
   1   1 -11  160.50   24.16
  -1  -1  11  144.16   32.03
  -1  -1  11  140.09   21.60
  -1  -1  11  180.46   22.43
   0   1 -11    9.16   33.68
   0   1 -11   51.52   14.79
   0   1 -11   50.74   14.09
   0  -1  11   32.99   23.92
   0  -1  11   38.39   14.07
   0  -1  11   56.41   13.77
  -1   1 -11  295.72   57.11
  -1   1 -11  264.17   28.88
   1  -1  11  285.80   31.29
   1  -1  11  268.58   27.46
   1  -1  11  247.11   46.66
  -2   1 -11   44.35   31.69
  -2   1 -11   50.38   13.80
   2  -1  11   43.03   12.91
   2  -1  11   51.13   27.21
   2  -1  11   59.58   18.31
  -3   1 -11   74.68   39.06
  -3   1 -11  127.39   22.29
   3  -1  11   79.48   16.82
   3  -1  11   96.66   23.47
   3  -1  11  148.93   38.48
  -4   1 -11   25.85   37.32
  -4   1 -11   21.24    5.78
  -4   1 -11   15.25   10.93
   4  -1  11    3.14   26.08
   4  -1  11   14.77   12.45
   4  -1  11   17.71   10.00
  -5   1 -11   -7.86   32.32
  -5   1 -11  127.64   11.63
  -5   1 -11  110.87   20.87
   5  -1  11  136.47   36.07
   5  -1  11   91.53   17.95
   5  -1  11   81.13   23.82
  -6   1 -11   18.77   38.83
  -6   1 -11   27.93   11.14
   6  -1  11   14.44   11.88
   6  -1  11   49.27   33.64
   6  -1  11   14.78   10.48
  -7   1 -11  117.11   18.92
  -7   1 -11    5.92   40.58
   7  -1  11  143.30   46.33
   7  -1  11  109.85   21.40
   7  -1  11  103.57   27.46
   7   0 -11   10.35   10.80
   7   0 -11   50.60   50.72
   7   0 -11   11.15    9.04
  -7   0  11   14.89   30.84
  -7   0  11   22.65    9.25
   6   0 -11   31.66   45.89
   6   0 -11   95.83   20.33
   6   0 -11   69.16   17.66
  -6   0  11   74.88   37.97
  -6   0  11   63.60   13.43
   5   0 -11   12.26    9.77
   5   0 -11   38.68   13.46
   5   0 -11  -51.31   33.91
  -5   0  11   11.79    7.86
  -5   0  11   29.02   26.24
  -5   0  11   17.13    4.43
   4   0 -11  200.35   29.51
   4   0 -11  202.13   28.18
   4   0 -11  266.91   60.23
  -4   0  11  196.57   45.00
  -4   0  11  170.28   18.12
  -4   0  11  180.17   23.20
   3   0 -11   70.12   16.82
   3   0 -11  113.50   21.17
   3   0 -11   38.63   36.05
  -3   0  11   67.15   13.69
  -3   0  11   84.84   15.18
  -3   0  11   64.07   29.15
   2   0 -11  240.53   27.35
   2   0 -11  239.47   27.12
   2   0 -11  220.25   49.58
  -2   0  11  282.70   26.51
  -2   0  11  182.18   39.45
  -2   0  11  320.78   26.84
   1   0 -11   78.84   17.71
   1   0 -11   96.82   18.54
   1   0 -11   73.04   29.61
  -1   0  11  103.39   16.59
  -1   0  11  120.57   19.75
  -1   0  11   56.40   26.29
   0   0 -11  443.33   39.46
   0   0 -11  396.62   65.84
   0   0 -11  435.57   40.03
   0   0  11  450.12   39.88
   0   0  11  448.34   36.54
   0   0  11  478.81   56.63
  -1   0 -11  201.60   27.57
  -1   0 -11  183.05   47.37
   1   0  11  148.66   26.23
   1   0  11  147.81   34.91
   1   0  11  181.12   23.47
  -2   0 -11  547.70   71.49
  -2   0 -11  510.04   42.43
   2   0  11  649.20   63.14
   2   0  11  381.38   41.55
   2   0  11  458.09   38.16
  -3   0 -11   37.97    7.21
  -3   0 -11   79.00   32.05
  -3   0 -11   45.56   14.00
   3   0  11   31.48   10.92
   3   0  11   56.28   28.24
   3   0  11   54.35   17.09
  -4   0 -11  164.00   24.64
  -4   0 -11  152.70   13.95
  -4   0 -11  165.99   46.02
   4   0  11  170.32   30.39
   4   0  11  142.96   21.28
   4   0  11  146.15   38.34
  -5   0 -11   50.66    8.19
  -5   0 -11   41.92   28.06
  -5   0 -11   47.57   12.99
   5   0  11   67.20   20.62
   5   0  11   23.95   23.15
   5   0  11   63.04   14.01
  -6   0 -11  149.85   12.70
  -6   0 -11  167.40   24.26
   6   0  11  141.02   23.05
   6   0  11  115.63   26.69
   6   0  11  173.89   41.98
  -7   0 -11    6.11   36.11
  -7   0 -11   34.92    9.38
   7   0  11   -8.10   27.95
   7   0  11   16.22   10.14
   7   0  11   17.44   12.79
  -8   0 -11  153.32   20.96
   8   0  11  103.15   20.66
   8   0  11  123.13   44.33
   8   0  11  102.88   26.63
   8  -1 -11   35.77   14.33
   8  -1 -11   35.85   14.82
  -8   1  11    9.34    7.70
  -8   1  11   43.19   42.52
   7  -1 -11   22.60   12.85
   7  -1 -11   54.17   15.83
   7  -1 -11   -9.39   39.26
  -7   1  11   47.34   11.93
  -7   1  11   34.32   33.25
   6  -1 -11   26.85   12.44
   6  -1 -11   50.53   39.92
   6  -1 -11   35.89   13.07
  -6   1  11   41.91   11.82
  -6   1  11   41.40   33.65
   5  -1 -11   68.51   44.53
   5  -1 -11  109.57   21.42
   5  -1 -11   78.86   18.30
  -5   1  11  105.71   12.09
  -5   1  11   44.81   32.55
  -5   1  11  110.91   16.90
   4  -1 -11   75.32   18.34
   4  -1 -11    7.59   31.06
   4  -1 -11   53.15   14.81
  -4   1  11  128.63   36.95
  -4   1  11   58.93   12.43
  -4   1  11   48.91   10.05
   3  -1 -11  143.05   23.01
   3  -1 -11  106.90   21.91
   3  -1 -11   96.36   42.43
  -3   1  11  165.53   17.50
  -3   1  11  145.63   17.04
  -3   1  11  140.38   37.74
   2  -1 -11   50.04   14.53
   2  -1 -11   13.60   10.03
   2  -1 -11   37.13   33.20
  -2   1  11   44.39   21.42
  -2   1  11   57.73   12.35
  -2   1  11   50.81   11.78
   1  -1 -11  173.93   25.09
   1  -1 -11   94.05   37.43
   1  -1 -11  154.91   25.02
  -1   1  11  173.62   18.44
  -1   1  11  211.63   22.30
  -1   1  11  185.21   37.47
   0  -1 -11  104.57   19.11
   0  -1 -11   45.22   29.89
   0  -1 -11   69.45   15.60
   0   1  11   71.96   26.60
   0   1  11   75.51   16.20
   0   1  11   79.30   14.34
  -1  -1 -11  261.89   51.23
  -1  -1 -11  222.43   28.99
   1   1  11  222.12   22.09
   1   1  11  240.72   41.38
   1   1  11  175.85   27.37
  -2  -1 -11   75.45   10.59
  -2  -1 -11   59.54   15.11
  -2  -1 -11   56.07   32.36
   2   1  11   38.87   18.29
   2   1  11   59.02   12.83
   2   1  11   57.30   16.13
  -3  -1 -11  225.48   25.98
  -3  -1 -11  261.67   51.31
  -3  -1 -11  305.80   21.65
   3   1  11  232.69   24.35
   3   1  11  242.69   29.50
   3   1  11  271.76   43.63
  -4  -1 -11   57.01   31.16
  -4  -1 -11   93.52    9.31
  -4  -1 -11   84.40   16.28
   4   1  11   69.72   14.60
   4   1  11   61.48   23.25
   4   1  11   60.89   17.66
  -5  -1 -11  229.44   18.80
  -5  -1 -11  275.03   53.13
  -5  -1 -11  303.41   27.05
   5   1  11  222.76   23.59
   5   1  11  231.70   36.31
   5   1  11  278.41   46.99
  -6  -1 -11   65.80   10.53
  -6  -1 -11   -0.99   30.37
  -6  -1 -11   73.91   14.99
  -6  -1 -11   53.01    7.46
   6   1  11   56.16   18.85
   6   1  11   64.45   14.49
   6   1  11   71.42   27.06
  -7  -1 -11  168.72   17.51
  -7  -1 -11  200.39   20.56
   7   1  11  197.07   26.45
   7   1  11  178.70   33.23
   7   1  11  222.26   44.33
  -8  -1 -11   20.60    7.54
  -8  -1 -11  -69.69   34.97
   8   1  11   31.99   11.24
   8   1  11   45.25   18.56
   8   1  11   18.12   30.50
   8  -2 -11   24.32   48.88
   8  -2 -11   68.61   19.18
   8  -2 -11   59.66   17.27
  -8   2  11   79.90   44.79
  -8   2  11   67.91   14.34
   7  -2 -11   23.64   42.05
   7  -2 -11   27.14   12.69
   7  -2 -11   38.85   15.52
  -7   2  11   50.71   40.68
  -7   2  11   47.96   12.00
   6  -2 -11   89.01   19.25
   6  -2 -11  112.19   23.22
  -6   2  11  108.01   17.60
  -6   2  11  124.87   11.50
  -6   2  11  151.76   42.39
   5  -2 -11   45.27   43.81
   5  -2 -11   46.77   14.20
   5  -2 -11   13.17   10.51
  -5   2  11   48.68   32.10
  -5   2  11   41.27   10.29
  -5   2  11   27.57    6.91
   4  -2 -11   77.79   37.17
   4  -2 -11  117.27   21.24
   4  -2 -11   96.16   19.87
  -4   2  11   72.69   29.38
  -4   2  11  105.65   16.78
  -4   2  11  113.56   13.36
   3  -2 -11   35.23   29.60
   3  -2 -11   23.26   10.73
   3  -2 -11   32.46   10.13
  -3   2  11   35.33   10.22
  -3   2  11   33.09    9.63
  -3   2  11   44.60   27.16
   2  -2 -11  247.01   53.25
   2  -2 -11  302.95   30.46
   2  -2 -11  323.91   31.94
  -2   2  11  315.63   27.54
  -2   2  11  304.54   26.76
  -2   2  11  293.96   48.38
   1  -2 -11   22.89   24.92
   1  -2 -11   65.96   15.83
   1  -2 -11   62.33   15.09
  -1   2  11   89.97   14.53
  -1   2  11   43.17   20.71
  -1   2  11   77.87   14.97
   0  -2 -11  268.87   28.78
   0  -2 -11  339.54   30.75
   0  -2 -11  206.17   48.68
   0   2  11  319.72   26.84
   0   2  11  321.77   29.18
   0   2  11  299.37   48.23
  -1  -2 -11   17.56    9.79
  -1  -2 -11   22.91   22.62
  -1  -2 -11   15.60    9.62
   1   2  11   25.98   17.50
   1   2  11   26.67    8.40
   1   2  11   18.95    9.46
  -2  -2 -11  227.18   18.13
  -2  -2 -11  262.68   50.88
  -2  -2 -11  212.48   23.40
   2   2  11  180.15   36.65
   2   2  11  182.97   22.91
   2   2  11  186.09   19.44
  -3  -2 -11   23.69    9.94
  -3  -2 -11   48.38    7.97
  -3  -2 -11   53.53   26.90
   3   2  11   16.38    9.36
   3   2  11   27.62    9.12
   3   2  11   11.26   15.78
  -4  -2 -11  340.66   58.79
  -4  -2 -11  294.04   27.40
  -4  -2 -11  250.03   22.99
  -4  -2 -11  300.76   21.71
   4   2  11  268.17   25.42
   4   2  11  293.36   45.23
   4   2  11  277.30   30.71
  -5  -2 -11    1.27    5.78
  -5  -2 -11   -0.03   23.30
  -5  -2 -11    5.50    4.68
  -5  -2 -11   12.73    3.87
   5   2  11    1.28    6.00
   5   2  11   -0.21   20.17
   5   2  11    8.18   10.96
  -6  -2 -11   91.85   45.54
  -6  -2 -11  152.29   12.02
  -6  -2 -11  118.17   17.67
  -6  -2 -11  163.20   15.29
   6   2  11  129.05   33.86
   6   2  11  154.84   21.01
   6   2  11  111.39   25.09
  -7  -2 -11   -0.40    0.70
  -7  -2 -11  -32.62   31.67
  -7  -2 -11    7.66    6.21
  -7  -2 -11    1.74    4.05
   7   2  11   15.92   12.39
   7   2  11   27.50   23.09
   7   2  11    1.69    7.36
  -8  -2 -11  -20.38   36.30
   8   2  11   82.35   32.24
   8   2  11   98.20   17.88
   8   2  11  115.61   26.07
   8  -3 -11   26.33   14.12
   8  -3 -11   67.12   19.27
   8  -3 -11   42.03   56.47
  -8   3  11   41.35   11.04
  -8   3  11  123.38   50.00
   7  -3 -11   64.26   18.91
   7  -3 -11  116.33   47.99
   7  -3 -11  102.98   21.66
  -7   3  11   73.04   15.13
  -7   3  11   42.77   37.81
   6  -3 -11   41.50   13.91
   6  -3 -11   28.68   13.18
   6  -3 -11   61.43   47.53
  -6   3  11   37.77    8.74
  -6   3  11   32.90    7.37
  -6   3  11   34.65    9.98
  -6   3  11   -2.76   31.72
   5  -3 -11   54.30   34.10
   5  -3 -11  141.63   25.16
   5  -3 -11  147.66   25.37
  -5   3  11  191.40   16.79
  -5   3  11  198.74   47.61
  -5   3  11  159.84   18.36
   4  -3 -11   70.72   37.95
   4  -3 -11    3.01    8.48
   4  -3 -11   22.95   11.88
  -4   3  11   13.97    6.77
  -4   3  11   27.25    7.64
  -4   3  11   17.50   26.10
  -4   3  11   24.57    8.12
   3  -3 -11  135.74   23.94
   3  -3 -11  109.76   40.23
   3  -3 -11  127.88   21.14
  -3   3  11   93.64   33.50
  -3   3  11  109.73   15.72
  -3   3  11  172.95   17.13
   2  -3 -11   36.16   31.12
   2  -3 -11   58.18   14.55
   2  -3 -11   64.52   16.19
  -2   3  11   62.41   13.04
  -2   3  11   74.78   27.51
  -2   3  11   71.19   12.15
  -2   3  11   54.56   11.58
   1  -3 -11  116.41   20.46
   1  -3 -11  156.20   43.25
   1  -3 -11  124.52   20.44
  -1   3  11  107.07   14.98
  -1   3  11   81.42   28.58
  -1   3  11  170.15   17.87
  -1   3  11  120.62   16.99
   0  -3 -11   29.02   11.27
   0  -3 -11   28.39   24.25
   0  -3 -11   32.22   11.19
   0   3  11   24.61    7.63
   0   3  11   33.39    8.17
   0   3  11   47.26   22.26
   0   3  11   30.98   10.17
  -1  -3 -11  185.12   43.20
  -1  -3 -11  231.63   24.47
  -1  -3 -11  214.61   24.21
   1   3  11  202.46   39.60
   1   3  11  243.62   19.95
   1   3  11  234.67   24.38
   1   3  11  230.96   21.08
  -2  -3 -11   23.45    5.75
  -2  -3 -11   22.24   25.97
  -2  -3 -11   13.75    8.49
  -2  -3 -11   12.62    6.18
   2   3  11   28.91   10.93
   2   3  11   20.19    7.81
   2   3  11   -2.77   18.39
   2   3  11   19.79    5.98
  -3  -3 -11  389.95   31.43
  -3  -3 -11  333.21   56.51
  -3  -3 -11  370.03   25.65
  -3  -3 -11  384.46   27.39
   3   3  11  310.75   47.09
   3   3  11  274.01   24.38
   3   3  11  323.95   27.94
   3   3  11  332.36   33.12
  -4  -3 -11   63.77   13.19
  -4  -3 -11   37.83    7.04
  -4  -3 -11   -4.91   26.53
  -4  -3 -11   47.18    9.34
   4   3  11   24.31   17.27
   4   3  11   33.99    9.74
   4   3  11   48.54   15.25
  -5  -3 -11  279.33   24.36
  -5  -3 -11  280.67   51.73
  -5  -3 -11  281.59   20.00
  -5  -3 -11  238.10   21.27
   5   3  11  247.52   29.83
   5   3  11  264.17   24.21
   5   3  11  257.46   41.72
  -6  -3 -11   21.36    6.22
  -6  -3 -11   16.13    3.95
  -6  -3 -11   36.79   29.90
  -6  -3 -11    2.66    5.03
   6   3  11    6.18   10.18
   6   3  11   15.30    7.64
   6   3  11    1.67   19.30
  -7  -3 -11  -22.60   30.52
   7   3  11   45.18   25.31
   7   3  11  109.56   23.54
   7   3  11  125.19   17.80
  -8  -3 -11    4.19   33.55
   8   3  11   -5.15   24.67
   8   3  11    4.94   12.10
   8   3  11    9.81    7.19
  -9  -3 -11  -16.05   39.83
   9   3  11  126.91   19.31
   9   3  11   82.20   35.22
   9   3  11   73.07   22.40
   8  -4 -11   93.64   21.47
   8  -4 -11  122.54   25.97
   8  -4 -11   61.78   61.80
  -8   4  11  104.47   48.82
   7  -4 -11   56.00   16.13
   7  -4 -11   60.08   17.96
   7  -4 -11  -20.10   34.37
  -7   4  11   59.51   40.93
   6  -4 -11  116.82   22.03
   6  -4 -11  130.54   47.40
   6  -4 -11  120.82   24.61
  -6   4  11  127.94   16.02
  -6   4  11   91.51   44.42
  -6   4  11  100.20   16.07
   5  -4 -11   47.03   35.60
   5  -4 -11   60.19   16.27
   5  -4 -11   51.96   14.57
  -5   4  11   73.26   13.08
  -5   4  11   79.94   14.10
  -5   4  11   27.03   29.66
   4  -4 -11  244.01   32.52
   4  -4 -11  195.08   27.22
   4  -4 -11  194.79   51.32
  -4   4  11  259.58   50.90
  -4   4  11  189.57   20.11
  -4   4  11  244.82   21.39
  -4   4  11  204.62   20.89
   3  -4 -11   47.04   13.76
   3  -4 -11   80.15   33.15
   3  -4 -11   18.42   10.85
  -3   4  11   27.95    8.73
  -3   4  11   18.45    7.81
  -3   4  11   27.39   27.84
  -3   4  11   16.14    7.00
   2  -4 -11  262.17   27.64
   2  -4 -11  192.78   48.72
   2  -4 -11  215.61   24.17
  -2   4  11  181.02   42.02
  -2   4  11  228.21   20.74
  -2   4  11  247.34   22.93
  -2   4  11  226.92   21.69
   1  -4 -11   70.79   15.64
   1  -4 -11   73.92   15.49
   1  -4 -11   66.32   33.29
  -1   4  11   76.35   12.04
  -1   4  11   52.21   11.44
  -1   4  11   95.56   16.53
  -1   4  11   41.94   27.06
   0  -4 -11  165.72   45.63
   0  -4 -11  268.80   27.15
   0  -4 -11  315.87   28.63
   0   4  11  257.33   21.87
   0   4  11  295.59   26.58
   0   4  11  181.69   40.77
  -1  -4 -11   72.73   15.10
  -1  -4 -11   95.71   14.09
  -1  -4 -11   84.75   16.66
  -1  -4 -11   85.57   33.47
   1   4  11   75.74   11.46
   1   4  11   87.43   26.26
   1   4  11   83.32   16.32
  -2  -4 -11  216.52   17.32
  -2  -4 -11   96.59   36.84
  -2  -4 -11  238.70   22.67
  -2  -4 -11  203.93   19.00
   2   4  11  113.11   28.06
   2   4  11  202.12   22.82
   2   4  11  210.99   17.56
  -3  -4 -11   24.25   23.31
  -3  -4 -11   22.63    8.78
  -3  -4 -11   33.03    7.57
  -3  -4 -11   19.71    5.10
   3   4  11   21.94    6.02
   3   4  11   23.07   10.70
   3   4  11   34.28    7.94
   3   4  11   25.25   16.90
  -4  -4 -11  173.54   16.51
  -4  -4 -11  192.92   19.24
  -4  -4 -11  180.66   15.37
  -4  -4 -11  143.38   41.29
   4   4  11  190.86   23.82
   4   4  11  172.85   15.60
   4   4  11  198.67   18.60
   4   4  11  142.76   32.16
  -5  -4 -11   17.35    5.25
  -5  -4 -11   18.07    6.19
  -5  -4 -11   13.59    4.05
  -5  -4 -11    9.36   26.51
   5   4  11   13.07   10.27
   5   4  11   18.28   17.73
   5   4  11   17.64    5.15
   5   4  11    9.43    6.03
  -6  -4 -11  179.26   14.18
  -6  -4 -11  178.51   45.75
  -6  -4 -11  179.58   14.81
   6   4  11  190.82   25.19
   6   4  11  174.98   18.38
   6   4  11  152.14   32.42
   6   4  11  167.57   14.27
  -7  -4 -11    5.43    2.61
  -7  -4 -11    0.97   30.53
   7   4  11   14.85   11.90
   7   4  11   12.31   20.06
   7   4  11    4.95    6.60
  -8  -4 -11    7.81   36.75
   8   4  11  115.91   17.13
   8   4  11   67.80   28.40
   8   4  11  118.78   25.78
  -9  -4 -11  -39.17   38.76
   9   4  11   48.02   27.14
   9   4  11    5.60   10.92
   8  -5 -11   42.69   14.77
   8  -5 -11   45.77   16.55
   8  -5 -11   93.83   67.14
  -8   5  11   49.09   11.80
  -8   5  11   41.18   10.57
  -8   5  11   36.03   38.87
   7  -5 -11   53.80   16.85
   7  -5 -11   70.32   18.54
  -7   5  11   59.81   12.80
  -7   5  11   65.73   14.20
  -7   5  11   54.43   13.15
  -7   5  11   43.88   38.59
   6  -5 -11   46.32   13.47
   6  -5 -11  100.76   53.23
   6  -5 -11   39.07   14.42
  -6   5  11   28.94   36.05
  -6   5  11   33.00   10.27
  -6   5  11   52.52   11.32
  -6   5  11   41.00   11.68
   5  -5 -11   65.70   18.75
   5  -5 -11   84.17   18.18
   5  -5 -11   36.89   37.87
  -5   5  11   54.76   11.10
  -5   5  11  102.71   40.06
  -5   5  11   81.13   16.44
  -5   5  11   77.04   13.84
   4  -5 -11  156.41   46.31
   4  -5 -11   97.96   20.52
   4  -5 -11  142.66   23.53
  -4   5  11  109.44   16.91
  -4   5  11  143.43   17.85
  -4   5  11  141.55   43.95
   3  -5 -11  184.96   54.74
   3  -5 -11  264.70   28.70
   3  -5 -11  258.17   27.36
  -3   5  11  230.96   50.42
  -3   5  11  269.65   24.29
  -3   5  11  289.76   23.78
   2  -5 -11  155.48   24.24
   2  -5 -11  135.42   42.92
   2  -5 -11  181.27   25.00
  -2   5  11  131.67   18.20
  -2   5  11  133.34   16.89
  -2   5  11  150.42   38.77
   1  -5 -11  494.62   65.23
   1  -5 -11  531.69   42.59
   1  -5 -11  533.50   43.51
  -1   5  11  446.07   36.84
  -1   5  11  518.10   36.88
  -1   5  11  595.42   65.34
   0  -5 -11  118.30   34.96
   0  -5 -11  136.12   22.16
   0  -5 -11  141.08   21.71
   0   5  11  158.75   19.19
   0   5  11  148.59   16.28
   0   5  11  159.88   15.36
   0   5  11  122.16   30.96
  -1  -5 -11  316.04   25.23
  -1  -5 -11  245.36   27.65
  -1  -5 -11  303.50   28.78
  -1  -5 -11  197.05   48.34
   1   5  11  298.68   25.30
   1   5  11  394.28   31.33
   1   5  11  326.99   24.38
   1   5  11  222.09   43.40
  -2  -5 -11  151.98   39.15
  -2  -5 -11  145.36   15.43
  -2  -5 -11  132.68   20.03
   2   5  11  146.69   23.04
   2   5  11  130.37   32.27
   2   5  11  157.13   16.18
   2   5  11  156.22   14.55
  -3  -5 -11  215.47   19.37
  -3  -5 -11  223.82   18.73
  -3  -5 -11  252.04   22.90
   3   5  11  233.63   40.65
   3   5  11  243.99   19.48
   3   5  11  262.13   26.57
  -4  -5 -11   67.52    9.24
  -4  -5 -11   56.48   10.80
  -4  -5 -11   47.79    7.90
  -4  -5 -11   53.50   27.92
   4   5  11   64.78    9.32
   4   5  11   61.42   15.45
   4   5  11   31.54   18.59
  -5  -5 -11  181.06   43.39
  -5  -5 -11  166.50   15.46
  -5  -5 -11  185.72   15.02
  -5  -5 -11  224.40   16.62
   5   5  11  169.87   33.72
   5   5  11  214.37   16.65
   5   5  11  207.78   25.41
   5   5  11  178.73   18.41
  -6  -5 -11   25.86    5.55
  -6  -5 -11   24.85   28.85
   6   5  11   43.60    6.73
   6   5  11   25.22    8.19
   6   5  11   18.59   11.10
   6   5  11   29.84   18.95
  -7  -5 -11  135.52   40.09
  -7  -5 -11  129.02   11.79
   7   5  11  148.98   16.40
   7   5  11  143.87   12.19
   7   5  11  125.16   24.42
   7   5  11  143.58   30.81
  -8  -5 -11   11.89   32.81
   8   5  11   32.80    8.66
   8   5  11   11.22    9.96
   8   5  11   46.55   24.13
   8  -6 -11   39.48   61.90
   8  -6 -11   73.12   18.16
   8  -6 -11   27.03   14.91
  -8   6  11   -9.66   43.92
  -8   6  11   52.24   11.77
  -8   6  11   53.45   13.34
   7  -6 -11   33.44   14.99
   7  -6 -11   24.80   12.86
  -7   6  11   38.83   11.05
  -7   6  11   10.34   32.10
  -7   6  11   19.71    8.39
   6  -6 -11  132.59   23.77
   6  -6 -11   42.81   52.32
   6  -6 -11  123.16   25.46
  -6   6  11  140.99   48.39
  -6   6  11  153.95   19.62
  -6   6  11  127.32   19.60
   5  -6 -11   27.92   34.05
   5  -6 -11   89.95   17.94
   5  -6 -11   56.03   15.80
  -5   6  11   43.65   10.23
  -5   6  11   30.01    9.95
  -5   6  11   17.93   31.86
   4  -6 -11  152.76   25.63
   4  -6 -11  137.07   22.05
   4  -6 -11   29.45   42.11
  -4   6  11  108.41   15.59
  -4   6  11   90.89   37.47
  -4   6  11  137.51   18.57
   3  -6 -11  105.75   20.45
   3  -6 -11   73.55   39.43
   3  -6 -11   62.61   14.74
  -3   6  11   43.80   26.05
  -3   6  11   86.29   14.61
  -3   6  11   66.09   11.89
   2  -6 -11  316.11   30.77
   2  -6 -11  257.75   60.86
   2  -6 -11  312.83   30.07
  -2   6  11  278.21   51.90
  -2   6  11  279.37   24.77
  -2   6  11  314.99   26.56
   1  -6 -11   59.14   14.15
   1  -6 -11   59.00   33.16
   1  -6 -11   90.56   18.21
  -1   6  11   72.49   12.78
  -1   6  11   18.37   26.50
  -1   6  11   67.67   11.23
   0  -6 -11  238.68   23.52
   0  -6 -11  310.00   28.38
   0  -6 -11  268.63   55.62
   0  -6 -11  266.17   27.28
   0   6  11  233.62   44.94
   0   6  11  277.18   23.86
   0   6  11  281.45   22.36
  -1  -6 -11   53.77   12.58
  -1  -6 -11   41.78   27.12
  -1  -6 -11   65.64   11.04
  -1  -6 -11   77.27   14.99
   1   6  11   46.04    8.97
   1   6  11   36.22   25.30
   1   6  11   42.28    9.81
  -2  -6 -11  409.01   32.20
  -2  -6 -11  354.45   29.00
   2   6  11  350.14   48.38
   2   6  11  393.75   28.27
   2   6  11  391.22   29.64
   2   6  11  334.69   32.69
  -3  -6 -11   42.91   28.60
  -3  -6 -11  145.11   15.15
  -3  -6 -11  104.12   12.08
   3   6  11  156.93   33.79
   3   6  11  117.04   13.99
   3   6  11  100.05   19.61
   3   6  11  120.05   15.50
  -4  -6 -11  303.84   53.25
   4   6  11  314.97   24.48
   4   6  11  311.95   25.89
   4   6  11  351.92   33.31
   4   6  11  326.79   44.94
  -5  -6 -11   71.87   32.09
  -5  -6 -11   41.61    7.43
   5   6  11   39.49    7.62
   5   6  11   43.91   13.86
   5   6  11   46.25   21.52
  -6  -6 -11  182.86   43.77
  -6  -6 -11  179.73   16.02
   6   6  11  195.44   18.75
   6   6  11  212.38   16.70
   6   6  11  215.06   26.20
   6   6  11  162.74   31.65
  -7  -6 -11   36.41   32.03
   7   6  11   48.68    9.54
   7   6  11   31.61   19.61
   7   6  11   25.99   11.82
   7   6  11   27.66    5.79
  -8  -6 -11  163.51   42.88
   8   6  11  138.49   17.86
   8   6  11  127.54   29.99
   8   6  11  113.35   24.19
   7  -7 -11   86.56   21.59
   7  -7 -11   97.02   20.11
  -7   7  11   55.14   13.50
  -7   7  11   50.17   11.90
  -7   7  11   71.53   52.06
   6  -7 -11   48.35   50.02
   6  -7 -11   95.60   22.46
   6  -7 -11   55.70   15.04
  -6   7  11   57.10   43.79
  -6   7  11   68.86   14.36
  -6   7  11   72.68   13.29
   5  -7 -11  148.23   23.73
   5  -7 -11   97.30   45.01
   5  -7 -11  130.62   24.89
  -5   7  11  119.16   48.65
  -5   7  11  134.51   20.19
  -5   7  11  129.66   17.48
   4  -7 -11   19.93   37.91
   4  -7 -11   28.10   11.54
   4  -7 -11   21.48   12.20
  -4   7  11   13.78   33.81
  -4   7  11   24.54    9.43
  -4   7  11   23.29    7.53
   3  -7 -11  156.65   25.96
   3  -7 -11  202.57   26.78
   3  -7 -11  185.28   56.69
  -3   7  11  170.07   18.06
  -3   7  11  147.51   19.03
  -3   7  11  123.45   37.81
   2  -7 -11   45.51   31.91
   2  -7 -11  128.12   22.21
   2  -7 -11  106.35   18.69
  -2   7  11   95.24   14.45
  -2   7  11  116.17   38.08
  -2   7  11  120.82   17.15
   1  -7 -11  435.12   35.68
   1  -7 -11  290.69   61.93
   1  -7 -11  419.98   36.68
  -1   7  11  371.46   30.00
  -1   7  11  373.58   59.89
  -1   7  11  389.22   31.17
   0  -7 -11   86.40   13.94
   0  -7 -11   90.89   16.19
   0  -7 -11   80.53   36.93
   0  -7 -11   72.36   15.57
   0   7  11   60.71   11.06
   0   7  11   77.97   13.29
   0   7  11   28.70   27.09
  -1  -7 -11  248.69   24.24
  -1  -7 -11  219.15   24.08
  -1  -7 -11  250.51   21.65
  -1  -7 -11  215.78   52.60
   1   7  11  205.54   43.46
   1   7  11  258.12   21.07
   1   7  11  219.86   21.29
  -2  -7 -11   28.99   27.10
  -2  -7 -11   63.52   10.02
  -2  -7 -11   48.19   10.91
   2   7  11   65.16   11.65
   2   7  11   52.25    9.65
   2   7  11   54.99   25.46
  -3  -7 -11  412.69   63.95
  -3  -7 -11  327.52   24.66
   3   7  11  371.28   33.98
   3   7  11  308.20   25.07
   3   7  11  263.18   45.88
   3   7  11  321.81   26.58
  -4  -7 -11   18.38   28.96
  -4  -7 -11   41.59    4.37
   4   7  11   34.97   13.02
   4   7  11    1.00   19.22
   4   7  11   35.91    7.79
   4   7  11   29.98    8.05
  -5  -7 -11  184.12   44.86
   5   7  11  172.42   33.99
   5   7  11  197.65   18.37
   5   7  11  234.40   26.41
   5   7  11  192.72   17.30
  -6  -7 -11    0.37   27.63
   6   7  11   18.95    5.60
   6   7  11  -13.20   17.53
   6   7  11   10.66    8.37
  -7  -7 -11  192.84   43.19
   7   7  11  177.78   31.17
   7   7  11  200.42   26.01
   7   7  11  195.33   16.65
  -8  -7 -11   10.00   29.26
   8   7  11   11.64   10.00
   8   7  11   23.84    7.08
   8   7  11   24.39   19.79
   8   7  11   22.75    5.13
   7  -8 -11   28.61   12.31
   7  -8 -11   13.50   12.01
  -7   8  11  -11.79   52.71
  -7   8  11   37.87    9.44
  -7   8  11   55.44   13.30
   6  -8 -11   14.33   46.36
   6  -8 -11   84.93   19.83
   6  -8 -11   89.23   20.02
  -6   8  11   86.09   16.75
  -6   8  11   82.51   14.72
  -6   8  11  101.64   50.72
   5  -8 -11   17.61   50.64
   5  -8 -11   19.47   13.09
   5  -8 -11   46.67   13.71
  -5   8  11   18.51    6.96
  -5   8  11   52.25   41.60
  -5   8  11   37.79   11.58
   4  -8 -11  163.51   57.96
   4  -8 -11   82.95   18.11
   4  -8 -11   90.49   20.51
  -4   8  11   71.65   14.15
  -4   8  11    7.92   33.84
  -4   8  11   76.79   13.36
   3  -8 -11   10.02    9.05
   3  -8 -11   -9.74   39.81
   3  -8 -11   30.06   12.77
  -3   8  11   25.59    8.16
  -3   8  11   23.34    9.24
  -3   8  11  -51.87   30.66
   2  -8 -11  105.54   18.21
   2  -8 -11  117.25   21.96
   2  -8 -11   54.18   42.15
  -2   8  11   87.29   13.77
  -2   8  11   93.14   15.72
  -2   8  11   88.72   39.46
   1  -8 -11   59.21   14.72
   1  -8 -11   74.26   41.10
   1  -8 -11   50.01   13.89
  -1   8  11   71.21   34.96
  -1   8  11   39.14    9.24
  -1   8  11   62.92   12.75
   0  -8 -11  228.60   23.41
   0  -8 -11  232.36   24.12
   0  -8 -11  192.30   52.89
   0  -8 -11  226.98   20.68
   0   8  11  235.01   21.33
   0   8  11  161.02   43.02
   0   8  11  170.06   18.14
  -1  -8 -11  112.90   17.25
  -1  -8 -11   62.92   12.06
   1   8  11   57.43   29.40
   1   8  11   73.27   11.97
   1   8  11   71.58   13.11
  -2  -8 -11  297.38   56.90
  -2  -8 -11  341.15   27.23
   2   8  11  290.63   24.75
   2   8  11  286.17   51.81
   2   8  11  316.35   26.43
  -3  -8 -11   74.64   10.00
  -3  -8 -11   51.61    7.79
  -3  -8 -11   82.21   37.74
   3   8  11   76.67   11.55
   3   8  11   55.17   10.83
   3   8  11   19.00   25.77
  -4  -8 -11  114.45   38.05
   4   8  11  147.00   16.52
   4   8  11  169.58   15.96
   4   8  11  198.67   24.77
   4   8  11  150.68   33.12
  -5  -8 -11   17.54   28.35
   5   8  11    7.83    4.89
   5   8  11    5.69    4.93
   5   8  11   12.72   10.94
   5   8  11   -6.78   21.16
  -6  -8 -11  123.68   39.24
   6   8  11  130.21   29.12
   6   8  11  160.54   16.50
   6   8  11  198.49   30.66
   6   8  11  168.70   15.43
  -7  -8 -11  -11.87   28.16
   7   8  11    9.68    4.22
   7   8  11   10.92   19.16
   7   8  11   11.31   10.24
   6  -9 -11   62.43   68.56
   6  -9 -11    5.83    9.30
   6  -9 -11   16.54   13.17
  -6   9  11   17.63    7.83
  -6   9  11   42.61   52.45
  -6   9  11   46.03   13.02
   5  -9 -11   84.28   20.96
   5  -9 -11  106.18   66.43
   5  -9 -11  103.38   20.16
  -5   9  11   81.36   14.96
  -5   9  11  149.40   21.42
  -5   9  11   57.36   52.06
   4  -9 -11   61.92   15.06
   4  -9 -11    4.20   47.80
   4  -9 -11   63.86   17.69
  -4   9  11   79.99   15.38
  -4   9  11   54.29   45.36
  -4   9  11   57.45   11.84
   3  -9 -11  111.11   53.61
   3  -9 -11  122.29   24.24
   3  -9 -11  114.46   19.51
  -3   9  11   82.53   43.77
  -3   9  11   85.13   14.46
  -3   9  11  100.08   17.15
   2  -9 -11   30.94    9.76
   2  -9 -11   45.61   45.41
   2  -9 -11   12.38   11.07
  -2   9  11    9.03    7.31
  -2   9  11   10.25    5.61
  -2   9  11   38.88   37.04
   1  -9 -11  175.43   22.88
   1  -9 -11  168.09   25.41
   1  -9 -11   62.20   45.37
  -1   9  11  134.65   17.52
  -1   9  11  113.34   41.18
  -1   9  11  114.36   18.44
   0  -9 -11   89.70   17.42
   0  -9 -11   73.41   14.93
   0  -9 -11   77.37   14.26
   0  -9 -11   73.40   39.90
   0   9  11   86.19   15.06
   0   9  11   85.79   13.30
   0   9  11   27.85   33.58
  -1  -9 -11  285.76   26.46
  -1  -9 -11  262.01   61.29
  -1  -9 -11  273.74   23.87
   1   9  11  253.36   24.73
   1   9  11  268.51   23.50
   1   9  11  279.12   24.85
   1   9  11  233.32   49.49
  -2  -9 -11   52.14   10.08
  -2  -9 -11   35.64   36.68
  -2  -9 -11   45.73    8.87
   2   9  11   40.87    9.22
   2   9  11   37.92    9.73
   2   9  11   46.92   10.83
   2   9  11   61.04   31.71
  -3  -9 -11   32.90   37.10
   3   9  11   97.60   33.48
   3   9  11   72.75   11.82
   3   9  11   89.15   13.84
  -4  -9 -11   30.05   35.22
   4   9  11    8.35    5.85
   4   9  11  -15.13   23.74
   4   9  11   11.74    5.66
  -5  -9 -11  128.30   41.97
   5   9  11   93.48   14.18
   5   9  11  149.84   25.96
   5   9  11  101.32   13.85
   5   9  11   56.90   27.73
  -6  -9 -11   30.71   30.37
   6   9  11   22.42    7.10
   6   9  11   40.16    8.87
   6   9  11   39.01   15.00
   6   9  11   36.81   21.41
   5 -10 -11   69.99   70.48
   5 -10 -11   92.92   20.40
   5 -10 -11   79.44   17.09
  -5  10  11   72.98   13.26
  -5  10  11   59.93   58.05
  -5  10  11   71.30   15.95
   4 -10 -11  116.78   23.89
   4 -10 -11  103.62   19.38
   4 -10 -11  -45.10   59.76
  -4  10  11   59.13   53.62
  -4  10  11   58.94   14.29
  -4  10  11   65.24   12.76
   3 -10 -11   34.14   50.92
   3 -10 -11   48.59   15.81
   3 -10 -11   47.91   13.35
  -3  10  11   21.15    8.74
  -3  10  11   79.36   48.24
  -3  10  11   42.51    9.77
   2 -10 -11   67.79   15.17
   2 -10 -11   91.99   20.09
   2 -10 -11   86.99   49.74
  -2  10  11   79.52   15.48
  -2  10  11   74.17   13.51
  -2  10  11  116.63   49.41
   1 -10 -11   19.91   42.75
   1 -10 -11   36.41    9.79
   1 -10 -11   15.18   11.54
  -1  10  11    6.61   35.86
  -1  10  11   16.02    9.19
  -1  10  11    9.04    6.62
   0 -10 -11  108.22   15.66
   0 -10 -11   43.67   40.13
   0 -10 -11   92.85   17.14
   0  10  11  127.99   17.27
   0  10  11  114.27   42.67
   0  10  11  156.98   20.53
   0  10  11  127.92   16.99
  -1 -10 -11   19.38    6.70
  -1 -10 -11    0.56   36.25
  -1 -10 -11   29.89    8.70
   1  10  11   37.28   10.10
   1  10  11   27.56    8.37
   1  10  11   27.63    8.00
   1  10  11    7.94   32.54
  -2 -10 -11  -15.88   35.52
   2  10  11  126.68   17.17
   2  10  11  150.06   43.06
   2  10  11   88.42   13.98
   2  10  11   92.58   14.32
  -3 -10 -11   34.03   37.48
   3  10  11   22.55   33.19
   3  10  11   16.12    5.86
   3  10  11   19.18    7.29
   3  10  11   16.08    6.46
  -4 -10 -11  123.34   46.04
   4  10  11  158.12   39.03
   4  10  11  175.53   18.14
   4  10  11  116.69   18.21
   4  10  11  197.81   18.01
  -5 -10 -11   59.23   40.03
   5  10  11   43.16    9.49
   5  10  11   30.93   28.15
   5  10  11   69.69   12.22
   3 -11 -11  152.87   20.93
   3 -11 -11   -5.99   63.12
   3 -11 -11  120.44   22.71
  -3  11  11   71.03   57.29
  -3  11  11   63.59   13.04
  -3  11  11  120.76   20.20
   2 -11 -11   66.77   13.83
   2 -11 -11   28.82   57.67
   2 -11 -11   79.23   19.39
  -2  11  11   38.65   11.63
  -2  11  11   50.27   11.56
  -2  11  11    7.23   49.64
   1 -11 -11  132.93   22.57
   1 -11 -11   -2.45   47.00
   1 -11 -11   88.88   15.41
  -1  11  11   85.39   14.70
  -1  11  11   24.59   45.67
  -1  11  11   78.79   13.06
  -1  11  11   91.82   16.87
   0 -11 -11   35.58   10.98
   0  11  11   24.83    8.52
   0  11  11   83.36   41.67
   0  11  11   28.30    7.99
   0  11  11   36.49   10.30
  -1 -11 -11  -47.03   44.40
   1  11  11   71.44   43.42
   1  11  11   95.21   16.31
   1  11  11  106.87   15.58
   1  11  11  103.92   14.33
  -2 -11 -11   -7.02   43.02
   2  11  11   29.85    8.22
   2  11  11    0.00   37.91
   2  11  11    9.77    7.86
   2  11  11   16.48    6.04
  -3 -11 -11   -3.30   42.25
   3  11  11  130.13   17.32
   3  11  11  128.32   45.44
   3  11  11  115.48   17.61
   3   3 -12   57.76   58.78
   3   3 -12   51.01   14.37
   3   3 -12   77.50   19.71
  -3  -3  12   35.96   11.39
  -3  -3  12   56.20   15.55
  -3  -3  12    0.18   39.58
   2   3 -12   33.43   12.32
   2   3 -12   40.92   14.89
   2   3 -12   -3.47   48.47
  -2  -3  12    4.67    8.40
  -2  -3  12   12.43   10.09
  -2  -3  12   40.44   38.46
   1   3 -12   87.54   20.50
   1   3 -12   69.22   57.03
  -1  -3  12  129.51   24.79
  -1  -3  12   30.67   38.76
  -1  -3  12   78.22   17.49
   0   3 -12   33.40   13.77
   0  -3  12   56.33   32.65
   0  -3  12    6.27   10.96
   0  -3  12    8.00    9.16
  -1   3 -12  102.41   21.15
  -1   3 -12   75.46   58.28
   1  -3  12   76.84   42.90
   1  -3  12   72.25   17.61
   1  -3  12   97.55   23.77
  -2   3 -12   13.60   11.69
  -2   3 -12   -8.87   45.73
   2  -3  12   37.04   13.19
   2  -3  12   15.68   39.63
   2  -3  12   17.81   14.47
  -3   3 -12   86.94   56.53
  -3   3 -12   69.67   18.87
   3  -3  12   47.43   14.54
   3  -3  12   75.76   42.03
   3  -3  12   53.90   20.80
   4   2 -12   48.91   16.31
   4   2 -12   36.43   13.86
   4   2 -12   58.22   40.44
  -4  -2  12   60.40   15.45
  -4  -2  12   10.53   35.47
   3   2 -12   92.48   54.51
   3   2 -12   62.83   15.97
   3   2 -12   41.08   13.42
  -3  -2  12   50.89   13.55
  -3  -2  12   45.02   12.19
  -3  -2  12   37.15   30.24
   2   2 -12   54.22   48.77
   2   2 -12   90.64   19.30
   2   2 -12   98.30   20.99
  -2  -2  12   65.52   15.64
  -2  -2  12   70.03   31.48
  -2  -2  12   39.90   13.24
   1   2 -12   19.78   11.10
   1   2 -12   15.76   10.57
  -1  -2  12   12.93    9.65
  -1  -2  12   36.31   13.48
  -1  -2  12   22.36   32.17
   0   2 -12   98.75   48.76
   0   2 -12   88.38   20.18
   0  -2  12   76.45   17.59
   0  -2  12   70.07   18.37
   0  -2  12   63.16   34.56
  -1   2 -12    5.27    9.70
  -1   2 -12  -20.97   38.98
   1  -2  12   26.20   10.54
   1  -2  12   -6.38   30.79
   1  -2  12   19.25   12.43
  -2   2 -12   75.90   17.90
  -2   2 -12   79.01   52.79
   2  -2  12   50.00   15.77
   2  -2  12   70.52   33.08
   2  -2  12   83.27   22.59
  -3   2 -12   12.99   11.09
  -3   2 -12   55.76   44.34
   3  -2  12    1.35    6.37
   3  -2  12   -4.05    9.15
   3  -2  12   56.84   34.18
  -4   2 -12   21.16   45.78
  -4   2 -12   79.72   18.73
   4  -2  12   74.84   17.76
   4  -2  12   58.74   31.34
   4  -2  12   76.60   23.14
  -5   2 -12  -16.12   44.69
  -5   2 -12   40.69   13.63
   5  -2  12   39.34   34.69
   5  -2  12   16.47   11.38
   5  -2  12   40.77   16.66
   6   1 -12   23.99   12.94
   5   1 -12   84.02   20.72
   5   1 -12  143.46   57.76
   5   1 -12   41.97   15.05
  -5  -1  12   81.22   15.86
  -5  -1  12   86.07   34.61
   4   1 -12    6.88   43.79
   4   1 -12   41.16   14.21
   4   1 -12   41.95   15.17
  -4  -1  12   53.82   13.82
  -4  -1  12   26.32    8.04
  -4  -1  12   30.78   34.45
   3   1 -12  134.45   24.46
   3   1 -12  134.80   23.26
  -3  -1  12   87.05   16.75
  -3  -1  12   83.02   36.45
  -3  -1  12   93.88   16.86
   2   1 -12   -2.01   36.19
   2   1 -12   31.61   12.32
   2   1 -12   19.88   10.91
  -2  -1  12   25.21   11.14
  -2  -1  12   62.70   32.97
  -2  -1  12   31.89   11.12
   1   1 -12   49.55   14.94
   1   1 -12   67.15   17.50
   1   1 -12   82.36   47.04
  -1  -1  12   84.76   17.22
  -1  -1  12   56.52   15.22
  -1  -1  12   71.70   30.82
   0   1 -12   15.81   34.86
   0   1 -12   39.13   14.44
   0  -1  12   24.86    9.27
   0  -1  12   26.04   11.87
   0  -1  12   40.06   28.97
  -1   1 -12  144.49   25.23
  -1   1 -12   55.32   40.93
   1  -1  12  119.05   23.82
   1  -1  12   91.20   18.01
   1  -1  12   39.61   29.55
  -2   1 -12   32.93   12.36
  -2   1 -12   23.04   30.99
   2  -1  12   15.54   29.10
   2  -1  12   18.00   12.01
   2  -1  12   33.39   12.57
  -3   1 -12  101.06   50.93
  -3   1 -12   98.87   20.44
   3  -1  12   93.08   30.46
   3  -1  12   98.25   23.61
   3  -1  12   87.18   17.98
  -4   1 -12    9.13    9.56
  -4   1 -12  -26.09   39.49
   4  -1  12    2.05   21.62
   4  -1  12   -5.99    6.19
   4  -1  12   10.54   13.48
  -5   1 -12   43.27   40.56
  -5   1 -12  129.00   22.80
   5  -1  12   73.42   36.90
   5  -1  12   58.34   20.23
   5  -1  12   93.52   18.59
  -6   1 -12   17.99   11.04
  -6   1 -12  -98.83   40.92
  -6   1 -12   -0.28    1.64
   6  -1  12    7.87    9.54
   6  -1  12  -18.00   35.37
   6  -1  12   16.06   15.63
   6   0 -12   83.36   18.83
   6   0 -12   80.55   53.69
   6   0 -12   67.83   18.79
  -6   0  12   72.14   14.64
  -6   0  12   70.50   39.34
   5   0 -12   67.90   17.34
   5   0 -12   42.44   14.50
   5   0 -12   39.90   48.58
  -5   0  12   52.93   13.43
  -5   0  12   27.72   31.18
   4   0 -12  142.80   24.40
   4   0 -12  122.07   23.69
  -4   0  12   98.72   16.01
  -4   0  12  147.97   20.98
  -4   0  12  127.48   42.87
   3   0 -12   52.20   40.98
   3   0 -12   83.14   19.48
   3   0 -12   79.02   17.74
  -3   0  12   64.15   13.45
  -3   0  12   78.89   15.48
  -3   0  12   54.58   29.30
   2   0 -12   81.15   18.20
   2   0 -12   36.94   42.14
   2   0 -12  104.07   21.33
  -2   0  12  132.72   20.98
  -2   0  12   63.10   31.51
  -2   0  12  123.87   19.17
   1   0 -12    9.84    8.86
   1   0 -12  -23.52   34.24
   1   0 -12   25.23   12.23
  -1   0  12  -24.99   23.45
  -1   0  12   19.64    8.10
  -1   0  12   24.10   11.57
   0   0 -12   65.56   34.33
   0   0 -12   93.97   19.91
   0   0 -12  155.67   24.08
   0   0  12  125.71   23.30
   0   0  12   87.76   16.82
   0   0  12  104.22   34.93
  -1   0 -12   50.60   13.99
  -1   0 -12   14.36   31.68
   1   0  12   12.89    8.85
   1   0  12   39.03   15.36
   1   0  12   24.84   25.30
  -2   0 -12   97.08   38.49
  -2   0 -12  130.58   22.87
   2   0  12  106.05   35.09
   2   0  12  144.73   26.12
   2   0  12  114.61   19.35
  -3   0 -12   17.50   38.96
  -3   0 -12   46.86   13.82
   3   0  12   43.36   12.03
   3   0  12   12.36   12.17
   3   0  12   19.30   26.79
  -4   0 -12   45.18   40.40
  -4   0 -12  132.41   22.40
   4   0  12   73.32   21.06
   4   0  12  121.10   20.41
   4   0  12   57.21   31.22
  -5   0 -12   26.00    5.95
  -5   0 -12  -18.60   33.37
  -5   0 -12   35.89   13.44
   5   0  12    4.52   27.61
   5   0  12   31.02   11.61
   5   0  12   18.56   13.89
  -6   0 -12  183.44   26.94
   6   0  12  164.33   33.92
   6   0  12  145.19   24.51
   6   0  12  230.24   49.35
  -7   0 -12   13.38   10.58
  -7   0 -12  -15.84   41.16
   7   0  12    3.08    8.74
   7   0  12   19.84   14.57
   7   0  12   26.42   37.81
   7  -1 -12   74.67   20.10
   7  -1 -12   83.09   56.21
   7  -1 -12   61.89   17.63
  -7   1  12   61.59   40.17
  -7   1  12   52.24   12.35
   6  -1 -12   43.43   14.92
   6  -1 -12   77.22   18.90
   6  -1 -12   61.58   53.38
  -6   1  12   39.89   35.74
  -6   1  12   64.66   13.00
   5  -1 -12  114.03   22.37
   5  -1 -12   93.58   20.30
   5  -1 -12   49.38   42.28
  -5   1  12  100.63   17.59
  -5   1  12   81.64   35.38
  -5   1  12  114.25   12.30
   4  -1 -12   60.00   16.66
   4  -1 -12   49.77   15.23
   4  -1 -12   23.21   41.73
  -4   1  12   48.33   11.05
  -4   1  12   84.67   40.72
  -4   1  12   79.64   15.30
   3  -1 -12  109.74   22.60
   3  -1 -12  166.96   26.77
   3  -1 -12  174.08   50.31
  -3   1  12  176.01   41.56
  -3   1  12  168.81   19.42
  -3   1  12  170.29   22.85
   2  -1 -12   56.14   14.60
   2  -1 -12   55.25   15.81
   2  -1 -12   87.36   39.42
  -2   1  12   57.88   13.57
  -2   1  12   64.65   13.72
  -2   1  12   55.37   26.04
   1  -1 -12  203.20   28.72
   1  -1 -12  177.25   48.57
   1  -1 -12  201.08   27.71
  -1   1  12  208.71   43.49
  -1   1  12  185.30   23.32
  -1   1  12  204.41   21.80
   0  -1 -12   53.15   15.68
   0  -1 -12   64.89   34.87
   0  -1 -12   33.77   12.60
   0   1  12   33.41    9.97
   0   1  12   38.79   14.01
   0   1  12   72.31   25.01
  -1  -1 -12  209.23   53.16
  -1  -1 -12  148.75   25.66
   1   1  12  188.45   40.76
   1   1  12  157.76   22.25
   1   1  12  180.08   28.15
  -2  -1 -12   59.62   15.88
  -2  -1 -12   44.04   33.04
   2   1  12   19.99   23.77
   2   1  12   37.05   14.45
   2   1  12   53.23   13.14
  -3  -1 -12  158.95   49.20
  -3  -1 -12  113.68   20.92
   3   1  12  132.78   25.96
   3   1  12  119.36   19.20
   3   1  12   88.14   28.69
  -4  -1 -12    2.90   33.95
  -4  -1 -12   42.25    7.84
  -4  -1 -12   34.60   11.29
   4   1  12   34.09   11.33
   4   1  12   52.02   17.67
   4   1  12    8.30   23.68
  -5  -1 -12   12.76   37.92
  -5  -1 -12   82.32   16.57
  -5  -1 -12  108.18   10.81
   5   1  12  113.69   34.57
   5   1  12   73.88   16.30
   5   1  12   77.79   21.88
  -6  -1 -12   21.24   10.78
  -6  -1 -12    1.87   37.55
   6   1  12   11.57    9.18
   6   1  12   10.80   26.64
   6   1  12    6.49   10.10
  -7  -1 -12  -17.71   44.27
   7   1  12   78.01   36.61
   7   1  12   72.23   16.28
   7   1  12   53.43   18.36
   7  -2 -12   18.79   12.32
   7  -2 -12   12.46   52.20
   7  -2 -12   58.12   17.35
  -7   2  12   38.91   11.04
  -7   2  12   52.34   43.06
   6  -2 -12   80.83   20.34
   6  -2 -12   59.46   50.36
   6  -2 -12   42.99   12.96
  -6   2  12   36.84   37.05
  -6   2  12   45.02   11.99
   5  -2 -12   36.64   14.91
   5  -2 -12   23.36   12.51
  -5   2  12   34.48   10.00
  -5   2  12   31.13   31.60
  -5   2  12   25.51    7.34
   4  -2 -12   66.20   17.64
   4  -2 -12   35.64   40.30
   4  -2 -12   89.52   20.51
  -4   2  12   69.35   14.28
  -4   2  12   94.78   34.54
   3  -2 -12   70.08   16.49
   3  -2 -12   95.38   20.32
   3  -2 -12   37.79   39.44
  -3   2  12   78.43   33.23
  -3   2  12   79.05   14.51
  -3   2  12   56.36   13.43
   2  -2 -12  270.44   28.28
   2  -2 -12  257.85   27.40
   2  -2 -12  226.71   56.04
  -2   2  12  254.73   24.00
  -2   2  12  201.21   23.27
  -2   2  12  244.49   47.47
   1  -2 -12  176.84   26.84
   1  -2 -12  190.40   27.26
   1  -2 -12   52.38   39.35
  -1   2  12  168.43   40.90
  -1   2  12  169.89   18.55
  -1   2  12  139.30   18.81
   0  -2 -12  236.69   32.31
   0  -2 -12  293.47   29.62
   0  -2 -12  206.16   52.28
   0   2  12  263.26   27.89
   0   2  12  306.67   26.50
   0   2  12  289.65   49.52
  -1  -2 -12   59.06   33.26
  -1  -2 -12   38.43   12.72
   1   2  12   57.44   27.17
   1   2  12   36.74   10.72
   1   2  12   36.07   13.43
  -2  -2 -12  236.73   55.04
  -2  -2 -12  293.33   29.96
   2   2  12  310.57   27.83
   2   2  12  307.96   50.70
   2   2  12  311.54   32.20
  -3  -2 -12   82.53   16.65
  -3  -2 -12   60.18   33.66
   3   2  12   32.66   25.50
   3   2  12   60.40   17.21
   3   2  12   68.64   13.48
  -4  -2 -12  250.01   56.92
  -4  -2 -12  324.60   29.52
  -4  -2 -12  290.24   22.02
   4   2  12  236.74   44.84
   4   2  12  278.41   26.19
   4   2  12  253.18   31.79
  -5  -2 -12   92.30   17.13
  -5  -2 -12   95.85   11.63
  -5  -2 -12    5.20   31.68
   5   2  12   77.67   19.98
   5   2  12   74.01   15.02
   5   2  12  113.81   32.48
  -6  -2 -12   96.19   13.84
  -6  -2 -12   85.62   16.24
  -6  -2 -12  108.08    9.83
  -6  -2 -12  -19.23   36.90
   6   2  12   94.83   33.46
   6   2  12  102.99   17.60
   6   2  12   89.90   23.07
  -7  -2 -12   29.21    8.78
  -7  -2 -12   -6.84   36.34
   7   2  12   34.87   29.17
   7   2  12   33.09   11.19
   7   2  12   21.87   15.45
   7  -3 -12   39.63   15.33
   7  -3 -12   70.30   58.30
   7  -3 -12   47.11   15.68
  -7   3  12   64.69   39.60
  -7   3  12   40.22   12.00
   6  -3 -12   37.58   14.64
   6  -3 -12   53.54   48.10
   6  -3 -12   52.04   15.75
  -6   3  12   40.57    8.10
  -6   3  12   59.17   13.84
  -6   3  12   12.57   39.90
   5  -3 -12   62.57   17.76
   5  -3 -12   88.95   19.83
   5  -3 -12   17.25   32.47
  -5   3  12  112.72   12.78
  -5   3  12   40.48   36.93
  -5   3  12   72.85   14.92
   4  -3 -12   57.69   16.13
   4  -3 -12   58.78   16.55
   4  -3 -12   38.19   31.42
  -4   3  12    6.12   30.58
  -4   3  12   72.06   13.48
  -4   3  12   45.14   10.18
   3  -3 -12   90.20   36.89
   3  -3 -12  122.81   23.71
   3  -3 -12  121.79   21.48
  -3   3  12  121.08   38.93
  -3   3  12   94.62   16.45
  -3   3  12  138.20   16.16
   2  -3 -12   83.25   17.41
   2  -3 -12   57.62   37.84
   2  -3 -12   89.06   18.94
  -2   3  12   60.56   33.27
  -2   3  12   75.69   12.98
  -2   3  12   84.55   15.27
  -2   3  12   79.31   14.11
   1  -3 -12  161.04   25.54
   1  -3 -12  166.06   48.20
   1  -3 -12  139.30   22.62
  -1   3  12  168.97   17.70
  -1   3  12  193.67   20.75
  -1   3  12  172.10   19.15
  -1   3  12  169.79   39.50
   0  -3 -12   23.10   10.97
   0  -3 -12   48.63   13.71
   0  -3 -12   85.73   40.32
   0   3  12   38.79    9.21
   0   3  12   27.59   24.60
   0   3  12   42.50   12.42
   0   3  12   38.87   10.00
  -1  -3 -12  156.06   45.23
  -1  -3 -12  201.42   27.98
  -1  -3 -12  162.51   25.93
   1   3  12  178.67   39.35
   1   3  12  182.40   17.63
   1   3  12  183.54   22.38
   1   3  12  178.41   19.57
  -2  -3 -12   50.15   13.39
  -2  -3 -12  123.99   40.92
   2   3  12   -3.17   20.20
   2   3  12   27.97    9.43
   2   3  12   37.38   12.48
  -3  -3 -12  203.63   23.64
  -3  -3 -12  147.93   44.37
   3   3  12  223.66   22.13
   3   3  12  218.39   40.56
   3   3  12  230.42   26.70
  -4  -3 -12   57.64   30.27
  -4  -3 -12   43.60    9.40
  -4  -3 -12   48.75   13.02
  -4  -3 -12   38.05    7.13
   4   3  12   16.43   21.87
   4   3  12   40.54   11.02
   4   3  12   58.85   16.69
  -5  -3 -12  212.12   18.04
  -5  -3 -12  216.18   19.85
  -5  -3 -12  252.74   23.82
   5   3  12  212.79   40.77
   5   3  12  248.29   23.60
   5   3  12  222.48   34.20
  -6  -3 -12   -6.53   32.54
  -6  -3 -12   32.51    5.99
  -6  -3 -12   30.37    8.71
   6   3  12   40.01   10.92
   6   3  12    5.36   24.69
   6   3  12    7.76   11.68
  -7  -3 -12   27.34   39.68
   7   3  12  105.11   34.26
   7   3  12   86.70   22.38
   7   3  12  140.60   19.67
  -8  -3 -12   -7.87   39.94
   8   3  12  -24.16   29.64
   8   3  12   25.98    9.73
   8   3  12    3.64   11.64
   7  -4 -12  103.35   61.71
   7  -4 -12    4.24    8.37
   7  -4 -12   12.40   11.74
  -7   4  12   33.19   10.89
  -7   4  12   67.42   38.96
   6  -4 -12   54.62   15.79
   6  -4 -12   52.32   15.62
  -6   4  12   37.19   43.34
  -6   4  12   34.68   10.39
  -6   4  12   46.78    9.61
   5  -4 -12   13.48    9.00
   5  -4 -12   78.31   47.47
   5  -4 -12    6.69   10.24
  -5   4  12   25.94    7.77
  -5   4  12    4.11   36.94
  -5   4  12   10.99    7.46
   4  -4 -12  100.88   20.23
   4  -4 -12    9.36   41.20
   4  -4 -12  142.27   25.41
  -4   4  12  119.81   36.81
  -4   4  12  176.47   17.53
  -4   4  12  109.34   17.45
   3  -4 -12   74.60   33.29
   3  -4 -12   59.01   15.43
   3  -4 -12   30.92   12.41
  -3   4  12   55.86   12.25
  -3   4  12   21.60   23.93
  -3   4  12   58.73   11.75
   2  -4 -12  120.82   21.38
   2  -4 -12  126.91   45.06
   2  -4 -12  175.70   26.45
  -2   4  12  122.47   16.79
  -2   4  12  139.90   17.66
  -2   4  12  106.78   37.35
   1  -4 -12   70.84   16.49
   1  -4 -12   25.99   23.87
   1  -4 -12   59.81   15.69
  -1   4  12   51.91   12.96
  -1   4  12   56.73   11.01
  -1   4  12   77.18   31.41
   0  -4 -12  122.41   21.54
   0  -4 -12  162.44   42.59
   0  -4 -12  166.74   24.42
   0   4  12   99.38   31.60
   0   4  12  168.92   16.50
   0   4  12  189.90   21.09
  -1  -4 -12  104.38   38.25
  -1  -4 -12   66.34   16.05
  -1  -4 -12   69.11   15.43
   1   4  12   47.02    9.78
   1   4  12   74.80   16.12
   1   4  12   80.77   14.12
   1   4  12   67.75   25.91
  -2  -4 -12  224.76   23.06
  -2  -4 -12  131.75   44.12
   2   4  12  204.56   24.06
   2   4  12  209.53   19.89
   2   4  12  176.07   17.40
   2   4  12  128.27   34.19
  -3  -4 -12   32.19    8.43
  -3  -4 -12   44.26   31.28
  -3  -4 -12   22.80    9.31
   3   4  12   35.92    9.89
   3   4  12   41.27   22.37
   3   4  12   32.28   12.54
   3   4  12   28.39    7.45
  -4  -4 -12  123.74   18.15
  -4  -4 -12  125.98   16.73
  -4  -4 -12  120.03   12.36
   4   4  12  133.39   18.21
   4   4  12  125.45   24.08
   4   4  12  137.95   13.05
   4   4  12   91.39   27.92
  -5  -4 -12   15.05    5.67
  -5  -4 -12    3.85   31.04
  -5  -4 -12   25.79    5.68
  -5  -4 -12   35.27    8.56
   5   4  12   37.14    7.37
   5   4  12    8.39   20.68
   5   4  12   16.95    8.43
   5   4  12   24.76   12.99
  -6  -4 -12  133.54   12.32
   6   4  12  139.68   19.09
   6   4  12  158.32   36.57
   6   4  12  155.27   27.20
  -7  -4 -12    0.16   37.35
  -7  -4 -12    1.07    1.55
   7   4  12   17.36   26.22
   7   4  12   11.34    7.82
   7   4  12    2.57   11.11
  -8  -4 -12   -5.72   41.73
   8   4  12   99.08   37.52
   8   4  12   48.82   17.96
   8   4  12   85.18   15.01
   7  -5 -12   53.04   18.27
   7  -5 -12   94.64   66.15
   7  -5 -12   62.99   18.19
  -7   5  12   -0.29   46.89
  -7   5  12   59.65   12.96
   6  -5 -12    7.77   53.04
   6  -5 -12   40.46   13.33
   6  -5 -12   30.72   15.53
  -6   5  12   32.11   10.43
  -6   5  12   56.65   13.13
  -6   5  12   46.41   33.71
  -6   5  12   32.98   10.00
   5  -5 -12   79.20   47.81
   5  -5 -12  153.97   25.30
   5  -5 -12  110.81   24.24
  -5   5  12  132.96   19.36
  -5   5  12  121.60   17.86
  -5   5  12  116.69   39.31
   4  -5 -12   35.24   41.35
   4  -5 -12   50.85   16.02
   4  -5 -12   38.69   13.38
  -4   5  12   -3.14   33.07
  -4   5  12   41.81   11.27
  -4   5  12   56.16   12.05
   3  -5 -12  147.77   53.04
   3  -5 -12  165.68   24.84
   3  -5 -12  172.31   27.26
  -3   5  12   81.06   35.12
  -3   5  12  125.35   17.16
  -3   5  12  154.44   20.53
   2  -5 -12   26.05   26.62
   2  -5 -12   10.91   10.38
   2  -5 -12   12.37    9.54
  -2   5  12    9.53    6.14
  -2   5  12    7.41    7.33
  -2   5  12   29.71   30.87
  -2   5  12    2.14    5.80
   1  -5 -12   68.76   31.84
   1  -5 -12   69.85   16.16
   1  -5 -12   76.58   17.01
  -1   5  12  103.49   17.76
  -1   5  12   86.32   14.33
  -1   5  12   83.13   34.59
  -1   5  12   91.18   13.57
   0  -5 -12   35.84   26.18
   0  -5 -12   59.72   13.95
   0  -5 -12   23.94   11.31
   0   5  12   22.69   20.26
   0   5  12   40.69    9.78
   0   5  12   32.32   10.68
   0   5  12   36.40    8.61
  -1  -5 -12  171.19   24.03
  -1  -5 -12  167.34   24.51
  -1  -5 -12  174.86   47.36
   1   5  12  170.42   21.03
   1   5  12  147.20   16.36
   1   5  12  174.65   16.37
   1   5  12   77.31   32.99
  -2  -5 -12   52.94   10.84
  -2  -5 -12   97.83   36.54
  -2  -5 -12   83.00   16.23
   2   5  12   48.84    9.51
   2   5  12   46.58   13.61
   2   5  12   70.45   26.12
  -3  -5 -12  179.77   47.48
  -3  -5 -12  204.85   19.84
  -3  -5 -12  244.67   23.54
   3   5  12  212.74   18.80
   3   5  12  221.19   42.05
   3   5  12  223.02   25.87
  -4  -5 -12   37.22    8.46
  -4  -5 -12   -0.59   29.55
  -4  -5 -12   30.79    8.65
   4   5  12   25.60   21.10
   4   5  12   27.19   11.79
   4   5  12   24.84    6.81
   4   5  12   30.29    9.51
  -5  -5 -12  140.20   14.86
  -5  -5 -12  166.29   44.79
  -5  -5 -12  164.40   14.02
  -5  -5 -12  150.19   13.92
   5   5  12  152.31   17.19
   5   5  12  126.21   13.57
   5   5  12  143.41   25.84
   5   5  12  211.03   37.26
  -6  -5 -12   38.36    6.87
  -6  -5 -12  -28.05   32.63
   6   5  12   31.12    6.47
   6   5  12   59.54   25.50
   6   5  12   67.22   18.13
   6   5  12   43.12   10.00
  -7  -5 -12    3.34   37.15
   7   5  12  133.01   11.58
   7   5  12  109.17   24.17
   7   5  12  116.97   32.77
   7   5  12  123.17   17.78
  -8  -5 -12   20.29   42.00
   8   5  12   25.49    9.11
   8   5  12   12.40   11.86
   8   5  12   -1.33   26.39
   7  -6 -12   31.66   13.91
   7  -6 -12   27.56   62.62
   7  -6 -12   48.28   17.05
  -7   6  12   41.48   12.42
  -7   6  12   83.14   54.88
  -7   6  12   42.37   11.65
   6  -6 -12  123.83   62.52
   6  -6 -12   99.78   21.13
   6  -6 -12  105.07   23.87
  -6   6  12  108.68   47.03
  -6   6  12  101.35   17.13
  -6   6  12  105.50   17.51
   5  -6 -12   51.20   41.66
   5  -6 -12   99.81   20.35
   5  -6 -12   79.14   19.58
  -5   6  12   43.24   40.97
  -5   6  12   70.40   14.53
  -5   6  12   67.20   12.91
   4  -6 -12   93.23   20.32
   4  -6 -12   18.63   41.94
   4  -6 -12  129.46   23.81
  -4   6  12   81.90   15.43
  -4   6  12  110.39   16.28
  -4   6  12  117.63   37.38
   3  -6 -12    8.99    9.15
   3  -6 -12  -13.84   38.29
   3  -6 -12   28.56   12.23
  -3   6  12   19.07    7.31
  -3   6  12   39.28   33.79
  -3   6  12   10.36    7.61
   2  -6 -12  190.46   27.68
   2  -6 -12  155.04   52.34
   2  -6 -12  228.62   31.68
  -2   6  12  179.52   44.00
  -2   6  12  201.17   20.96
  -2   6  12  210.83   19.25
   1  -6 -12   52.69   13.43
   1  -6 -12  -14.84   24.90
   1  -6 -12   43.58   14.15
  -1   6  12   39.26    9.34
  -1   6  12   42.32   10.33
  -1   6  12   36.45   27.59
   0  -6 -12  190.99   27.00
   0  -6 -12  200.68   26.57
   0  -6 -12   45.64   39.57
   0   6  12  124.89   37.57
   0   6  12  194.94   18.02
   0   6  12  147.37   17.18
   0   6  12  235.67   23.80
  -1  -6 -12   13.20    9.02
  -1  -6 -12   32.93   32.21
  -1  -6 -12   15.40    9.88
   1   6  12   34.75    8.15
   1   6  12   15.03    7.68
   1   6  12   55.43   29.17
   1   6  12   48.70   14.22
  -2  -6 -12   96.17   40.98
  -2  -6 -12  135.15   19.34
  -2  -6 -12  139.76   15.57
   2   6  12  131.17   13.91
   2   6  12  108.33   16.46
   2   6  12   75.23   31.08
   2   6  12  151.13   19.47
  -3  -6 -12   27.89    7.42
  -3  -6 -12   19.39   31.00
  -3  -6 -12   28.21    8.62
   3   6  12   18.68   10.89
   3   6  12   19.54    7.78
   3   6  12   31.51   23.00
   3   6  12   14.50    5.88
  -4  -6 -12  118.65   42.54
  -4  -6 -12  151.32   15.82
   4   6  12  109.67   30.51
   4   6  12  142.47   14.30
   4   6  12  170.14   21.32
  -5  -6 -12    4.67   31.35
  -5  -6 -12   15.88    3.80
   5   6  12   17.50    5.58
   5   6  12   26.40   12.17
   5   6  12    7.97   21.43
  -6  -6 -12  124.31   44.73
   6   6  12  169.48   28.79
   6   6  12  166.19   16.98
   6   6  12  139.82   13.81
   6   6  12  112.89   31.26
  -7  -6 -12    6.97   36.41
   7   6  12   27.35    8.80
   7   6  12   18.71    5.26
   7   6  12   27.54   23.74
   7   6  12   34.85   14.03
  -7   7  12  117.09   49.09
   6  -7 -12   94.35   22.22
   6  -7 -12   44.90   51.11
   6  -7 -12   60.12   17.59
  -6   7  12   72.88   15.08
  -6   7  12   56.17   51.30
  -6   7  12   68.08   13.71
   5  -7 -12    5.86   48.34
   5  -7 -12   80.08   19.62
   5  -7 -12   85.67   19.28
  -5   7  12   74.61   14.09
  -5   7  12   65.60   40.59
  -5   7  12   86.36   16.16
   4  -7 -12   25.13   12.24
   4  -7 -12   45.11   42.08
   4  -7 -12   62.03   17.57
  -4   7  12   28.04   10.31
  -4   7  12   41.53   10.61
  -4   7  12   77.97   36.15
   3  -7 -12   98.26   21.30
   3  -7 -12   74.40   17.45
   3  -7 -12  138.76   52.07
  -3   7  12   87.39   15.90
  -3   7  12   66.96   12.55
  -3   7  12   27.82   35.05
   2  -7 -12  107.38   21.83
   2  -7 -12   91.89   47.50
   2  -7 -12  123.00   21.21
  -2   7  12  144.53   19.89
  -2   7  12  121.61   38.75
  -2   7  12  124.23   17.21
   1  -7 -12  272.53   33.85
   1  -7 -12  217.94   58.72
   1  -7 -12  256.57   26.90
  -1   7  12  224.52   22.60
  -1   7  12  211.05   20.92
  -1   7  12  228.08   52.17
   0  -7 -12   47.53   12.75
   0  -7 -12   87.60   18.44
   0  -7 -12   40.20   38.47
   0   7  12   68.17   13.39
   0   7  12   64.65   11.32
   0   7  12   70.89   35.18
  -1  -7 -12  132.05   47.53
  -1  -7 -12  181.43   24.97
  -1  -7 -12  181.55   19.19
   1   7  12  206.67   18.51
   1   7  12  160.86   40.98
   1   7  12  192.18   19.56
  -2  -7 -12   45.00   11.91
  -2  -7 -12   46.38    8.87
   2   7  12   48.96   11.29
   2   7  12   57.15   15.69
   2   7  12   42.96    8.90
   2   7  12   -2.27   22.86
  -3  -7 -12  192.65   18.75
  -3  -7 -12  229.51   54.24
  -3  -7 -12  220.70   21.20
   3   7  12  217.37   19.60
   3   7  12  227.53   21.12
   3   7  12  279.55   46.63
   3   7  12  228.37   27.00
  -4  -7 -12   45.74   34.95
   4   7  12   49.83   15.18
   4   7  12   38.06   24.24
   4   7  12   40.58   10.15
   4   7  12   51.56    9.10
  -5  -7 -12   93.43   40.91
   5   7  12   87.25   30.84
   5   7  12  139.99   25.40
   5   7  12  144.60   13.87
  -6  -7 -12  -14.32   32.80
   6   7  12   14.25   10.73
   6   7  12   -4.12   21.98
   6   7  12   21.37    5.89
  -7  -7 -12  113.27   47.40
   7   7  12  137.73   26.17
   7   7  12   92.87   30.23
   7   7  12  137.25   12.87
   7   7  12  118.24   17.28
   6  -8 -12   78.20   18.07
   6  -8 -12   60.05   69.36
   6  -8 -12   51.02   17.97
  -6   8  12   52.94   12.61
  -6   8  12   55.91   49.41
  -6   8  12   71.21   15.70
   5  -8 -12   40.76   14.91
   5  -8 -12   35.72   43.27
   5  -8 -12   13.17   10.35
  -5   8  12   26.20    9.55
  -5   8  12   38.15   10.09
  -5   8  12   19.58   42.96
   4  -8 -12  122.66   59.65
   4  -8 -12  129.69   24.32
   4  -8 -12  100.01   19.93
  -4   8  12  118.42   17.37
  -4   8  12  121.78   19.04
  -4   8  12   55.69   37.95
   3  -8 -12   49.05   15.96
   3  -8 -12   24.80   45.81
   3  -8 -12   47.48   13.70
  -3   8  12   48.91   12.52
  -3   8  12   43.44   10.05
  -3   8  12   54.84   38.68
   2  -8 -12  123.35   21.71
   2  -8 -12  154.36   26.13
   2  -8 -12  111.86   52.47
  -2   8  12  138.34   18.26
  -2   8  12  110.90   44.49
  -2   8  12  181.02   22.87
   1  -8 -12  109.78   19.42
   1  -8 -12   73.28   43.92
   1  -8 -12  131.51   23.33
  -1   8  12   85.23   37.67
  -1   8  12  122.83   16.59
  -1   8  12  120.78   18.08
   0  -8 -12  286.76   62.65
   0  -8 -12  217.73   24.91
   0  -8 -12  195.92   28.29
   0   8  12  367.14   61.60
   0   8  12  263.80   22.33
   0   8  12  213.39   22.13
  -1  -8 -12   74.94   42.43
  -1  -8 -12   88.30   14.28
  -1  -8 -12  102.19   16.91
   1   8  12   69.54   34.13
   1   8  12   90.61   13.49
   1   8  12   71.84   13.86
  -2  -8 -12  188.37   19.81
  -2  -8 -12  151.72   49.31
  -2  -8 -12  173.54   17.83
   2   8  12  178.21   18.85
   2   8  12  176.41   17.70
   2   8  12  179.13   43.82
  -3  -8 -12   25.22   33.42
   3   8  12   49.08   15.70
   3   8  12   52.07   10.84
   3   8  12    8.99   24.78
   3   8  12   44.22    8.88
  -4  -8 -12   90.44   39.67
   4   8  12  104.64   15.57
   4   8  12  143.59   37.14
   4   8  12  100.33   13.81
   4   8  12  146.92   25.81
  -5  -8 -12   13.37   34.69
   5   8  12  -36.93   22.70
   5   8  12   11.32    5.48
   5   8  12   17.51    7.61
   5   8  12   15.31   11.28
  -6  -8 -12   77.04   39.98
   6   8  12  124.38   13.09
   6   8  12  125.24   24.26
   6   8  12   78.05   28.53
   6   8  12  116.84   16.04
   5  -9 -12   75.12   17.06
   5  -9 -12   72.83   19.44
   5  -9 -12  -65.08   53.94
  -5   9  12   10.23   48.24
  -5   9  12   40.64   12.37
  -5   9  12   65.04   12.95
   4  -9 -12   66.33   19.70
   4  -9 -12   62.68   59.95
   4  -9 -12   52.41   15.01
  -4   9  12   44.08   11.05
  -4   9  12   46.51   12.97
  -4   9  12   13.49   43.21
   3  -9 -12   77.26   17.23
   3  -9 -12   17.98   53.09
   3  -9 -12  107.20   22.55
  -3   9  12   57.02   12.55
  -3   9  12   79.48   16.02
  -3   9  12  104.98   50.86
   2  -9 -12  -21.87   41.57
   2  -9 -12   43.38   13.68
   2  -9 -12   17.03    9.79
  -2   9  12    2.41   41.41
  -2   9  12   13.73    7.31
  -2   9  12   22.27    8.03
   1  -9 -12   -4.81   42.32
   1  -9 -12  140.29   22.31
   1  -9 -12  151.79   24.11
  -1   9  12  135.61   17.67
  -1   9  12  136.48   19.95
  -1   9  12   69.10   39.80
   0  -9 -12    1.08   37.83
   0  -9 -12   67.52   14.59
   0  -9 -12   53.00   14.11
   0   9  12   21.85   33.72
   0   9  12   49.64   11.57
   0   9  12   48.19   10.22
  -1  -9 -12  140.70   21.65
  -1  -9 -12  120.29   18.15
   1   9  12  107.36   43.09
   1   9  12  155.76   16.28
   1   9  12  163.79   17.95
  -2  -9 -12    1.17   37.85
  -2  -9 -12   90.58   13.86
   2   9  12   13.03   31.18
   2   9  12   60.33   11.68
   2   9  12   78.01   13.34
  -3  -9 -12   38.98   38.14
   3   9  12   98.33   13.63
   3   9  12   76.65   13.79
   3   9  12   44.16   35.12
  -4  -9 -12   11.37   39.53
   4   9  12   37.95   29.27
   4   9  12   52.55   16.75
   4   9  12   53.39   11.08
   4   9  12   46.84    9.83
  -5  -9 -12   43.39   41.04
   5   9  12  142.63   18.66
   5   9  12  186.53   30.22
   5   9  12  154.47   15.90
   5   9  12  139.13   36.92
   4 -10 -12  -48.91   44.99
   4 -10 -12  107.96   24.86
   4 -10 -12  102.91   19.40
  -4  10  12  120.24   54.91
  -4  10  12   90.02   16.80
   3 -10 -12   80.68   19.30
   3 -10 -12   57.97   14.79
   3 -10 -12   57.17   61.40
  -3  10  12   30.73    8.63
  -3  10  12   25.90   10.27
  -3  10  12   66.00   49.63
   2 -10 -12   38.93   52.87
   2 -10 -12   98.50   21.49
   2 -10 -12   94.79   17.78
  -2  10  12  104.25   17.18
  -2  10  12   51.49   39.77
  -2  10  12   76.08   14.08
   1 -10 -12   31.60   13.03
   1 -10 -12   18.22    9.06
   1 -10 -12  -67.45   48.79
  -1  10  12   31.10    9.19
  -1  10  12   18.63    8.88
  -1  10  12   -4.18   42.80
   0 -10 -12   93.44   17.01
   0 -10 -12   -8.27   41.90
   0  10  12   92.32   14.37
   0  10  12   80.13   44.47
   0  10  12  124.20   18.18
  -1 -10 -12   34.28   10.24
  -1 -10 -12   -4.51   42.28
   1  10  12   32.89   35.93
   1  10  12   42.28   11.08
   1  10  12   22.31    8.01
  -2 -10 -12  108.51   14.77
   2  10  12  110.90   45.73
   2  10  12  121.79   17.87
   2  10  12  113.79   15.86
  -3 -10 -12  -23.55   41.87
   3  10  12   -0.46   31.50
   3  10  12   27.69    9.00
   3  10  12   28.45    8.13
  -4 -10 -12  -49.26   40.40
   4  10  12  109.53   16.34
   4  10  12   79.09   37.50
   4  10  12  113.84   15.68
   1 -11 -12  -57.71   49.80
   1 -11 -12   69.90   17.44
   1 -11 -12   68.44   13.17
  -1  11  12   68.96   15.27
  -1  11  12   71.91   51.54
   0 -11 -12   17.83   10.35
   0  11  12   27.07    9.24
   0  11  12  -57.96   40.82
   0  11  12   18.89    8.11
  -1 -11 -12   59.44   12.82
  -1 -11 -12  -32.35   48.72
   1  11  12   71.51   13.25
   1  11  12   85.41   49.16
   1  11  12   66.71   14.97
   2  11  12   67.32   43.19
   2   2 -13   88.35   20.76
   2   2 -13   88.97   64.58
   2   2 -13   57.96   16.54
  -2  -2  13   12.53   41.52
  -2  -2  13   83.35   18.46
   1   2 -13  -23.27   39.06
   1   2 -13    7.85    9.42
  -1  -2  13    6.90   36.49
  -1  -2  13   20.64   11.93
  -1  -2  13   14.67   11.37
   0   2 -13   69.04   18.47
   0  -2  13   50.19   16.34
   0  -2  13   59.58   41.12
   0  -2  13   53.61   15.26
  -1   2 -13   -7.28    7.56
  -1   2 -13   44.32   44.26
   1  -2  13   22.28   14.16
   1  -2  13   33.63   13.78
   1  -2  13   -1.77   27.20
  -2   2 -13   44.31   60.37
  -2   2 -13   48.75   15.44
   2  -2  13   91.87   24.05
   2  -2  13   51.58   15.25
   2  -2  13   20.27   32.72
   4   1 -13   37.16   13.17
   4   1 -13   26.05   13.99
   4   1 -13   -8.08   50.57
  -4  -1  13   40.46   42.87
   3   1 -13   78.20   18.54
   3   1 -13   79.57   59.20
   3   1 -13   71.55   19.08
  -3  -1  13   38.02   38.71
  -3  -1  13   73.78   16.58
  -3  -1  13   72.71   14.91
   2   1 -13   23.17   13.38
   2   1 -13  -23.87   45.64
   2   1 -13   35.29   11.60
  -2  -1  13   20.20   10.87
  -2  -1  13   24.49   11.65
  -2  -1  13    1.45   33.57
   1   1 -13   70.00   59.23
   1   1 -13   68.82   17.72
   1   1 -13   61.76   17.13
  -1  -1  13   55.37   14.91
  -1  -1  13   46.22   15.27
  -1  -1  13   55.30   37.72
   0   1 -13   26.01   11.66
   0   1 -13   45.19   39.04
   0  -1  13   30.30   34.02
   0  -1  13   37.70   12.96
   0  -1  13   10.69   10.87
  -1   1 -13  118.94   24.22
  -1   1 -13  108.20   54.19
   1  -1  13  120.53   25.06
   1  -1  13  180.34   47.90
   1  -1  13  139.73   24.32
  -2   1 -13   17.42   48.79
  -2   1 -13   10.49   10.85
   2  -1  13   11.73    9.29
   2  -1  13  -20.63   31.42
   2  -1  13   33.10   16.21
  -3   1 -13   89.46   19.61
  -3   1 -13 -110.91   46.73
   3  -1  13   32.50   29.07
   3  -1  13   67.05   20.60
   3  -1  13   69.66   17.44
  -4   1 -13   20.34   52.87
  -4   1 -13    1.33    8.21
   4  -1  13   22.40   10.52
   4  -1  13   51.15   38.77
   4  -1  13   11.08   14.43
   5   0 -13   49.39   16.07
   5   0 -13   35.08   13.00
   5   0 -13  -22.84   47.85
  -5   0  13   44.00   13.01
  -5   0  13   48.16   39.79
   4   0 -13   38.91   57.34
   4   0 -13   60.03   17.69
   4   0 -13   40.85   13.40
  -4   0  13  105.29   39.09
  -4   0  13   75.95   15.66
   3   0 -13   82.25   63.29
   3   0 -13   74.60   20.01
   3   0 -13   72.08   17.54
  -3   0  13   52.79   12.38
  -3   0  13   74.67   16.50
  -3   0  13   45.22   33.65
   2   0 -13   66.67   18.19
   2   0 -13   68.67   17.71
   2   0 -13   70.32   48.07
  -2   0  13   55.01   14.66
  -2   0  13   20.58   25.15
  -2   0  13   71.51   15.75
   1   0 -13  -23.92   39.15
   1   0 -13   14.54    8.85
   1   0 -13   33.48   12.26
  -1   0  13   27.36   11.04
  -1   0  13   38.38   31.74
  -1   0  13    5.48    9.37
   0   0 -13   12.05   36.14
   0   0 -13   42.84   14.33
   0   0  13  -18.11   30.62
   0   0  13   54.78   15.95
   0   0  13   41.12   12.50
  -1   0 -13   28.93   33.76
  -1   0 -13   41.77   13.29
   1   0  13   58.12   32.80
   1   0  13   46.80   16.36
   1   0  13   30.55   11.46
  -2   0 -13   39.92   47.59
  -2   0 -13   94.44   19.96
   2   0  13   91.70   22.40
   2   0  13   37.56   31.05
   2   0  13   75.01   16.51
  -3   0 -13   16.95   11.60
  -3   0 -13   34.79   44.57
   3   0  13    2.41    7.61
   3   0  13   12.68   12.76
   3   0  13   37.85   34.38
  -4   0 -13   68.85   16.99
  -4   0 -13   22.45   47.76
   4   0  13   48.68   13.43
   4   0  13   45.43   17.57
   4   0  13   61.50   39.63
  -5   0 -13   15.47   11.87
  -5   0 -13  -16.80   46.51
   5   0  13   10.53   11.39
   5   0  13   -9.43   27.79
   5   0  13   21.85   11.93
   5  -1 -13  106.51   23.66
   5  -1 -13   72.18   49.62
   5  -1 -13   72.44   18.37
  -5   1  13   18.80   37.00
  -5   1  13  105.79   18.33
   4  -1 -13   28.04   12.69
   4  -1 -13   17.72   10.87
   4  -1 -13   37.05   44.84
  -4   1  13   21.29    9.46
  -4   1  13   23.53    8.49
  -4   1  13   14.76   36.77
   3  -1 -13   87.19   20.10
   3  -1 -13   76.81   52.34
   3  -1 -13  109.51   22.20
  -3   1  13   98.00   16.89
  -3   1  13   73.92   35.50
  -3   1  13   69.29   15.11
   2  -1 -13   41.59   14.18
   2  -1 -13   39.34   36.54
   2  -1 -13   24.51   12.76
  -2   1  13   64.30   33.36
  -2   1  13   40.31   11.98
  -2   1  13    8.37    7.88
   1  -1 -13   81.68   18.91
   1  -1 -13   46.81   44.65
   1  -1 -13   71.73   17.19
  -1   1  13   71.00   15.72
  -1   1  13   16.81   29.82
  -1   1  13   82.78   18.39
   0  -1 -13   29.72   12.32
   0  -1 -13   85.17   45.22
   0  -1 -13   40.24   14.49
   0   1  13   32.09   12.33
   0   1  13   23.08   28.27
   0   1  13   23.07   10.43
  -1  -1 -13   86.21   19.86
  -1  -1 -13   66.17   45.45
   1   1  13   78.47   20.20
   1   1  13  127.13   38.06
   1   1  13  113.79   18.72
  -2  -1 -13   17.21   37.03
  -2  -1 -13   17.92   11.32
   2   1  13   29.67   14.80
   2   1  13   20.02   29.49
   2   1  13   14.25    9.27
  -3  -1 -13  -14.37   40.22
  -3  -1 -13   73.97   17.02
   3   1  13   33.52   32.72
   3   1  13   60.20   14.35
   3   1  13   81.08   20.67
  -4  -1 -13  -12.90   46.64
  -4  -1 -13   -2.52    7.13
   4   1  13   24.31    8.92
   4   1  13   25.05   14.99
   4   1  13   25.61   31.83
  -5  -1 -13   17.11   41.56
  -5  -1 -13   74.25   15.89
   5   1  13  104.27   38.61
   5   1  13   50.23   19.12
   5   1  13   56.90   14.73
  -6  -1 -13  -44.85   41.53
  -6  -1 -13   32.83   11.16
   6   1  13   15.96    9.40
   6   1  13   21.26   15.17
   6   1  13    5.36   35.25
   6  -2 -13   54.24   17.04
   6  -2 -13   41.56   14.93
   6  -2 -13   57.76   58.73
  -6   2  13   76.01   44.94
  -6   2  13   71.20   15.51
   5  -2 -13   62.25   16.87
   5  -2 -13   68.17   56.67
   5  -2 -13   46.84   16.18
  -5   2  13   36.58    8.79
  -5   2  13   52.24   12.95
  -5   2  13   81.84   46.74
   4  -2 -13   98.99   21.38
   4  -2 -13  102.29   22.27
  -4   2  13   52.79   37.55
  -4   2  13  122.27   19.68
  -4   2  13   83.85   14.29
   3  -2 -13   77.15   18.36
   3  -2 -13   43.62   15.64
   3  -2 -13   42.15   44.98
  -3   2  13   47.37   12.11
  -3   2  13   14.55   24.61
  -3   2  13   52.75   12.66
   2  -2 -13  113.05   21.89
   2  -2 -13  182.68   29.25
   2  -2 -13   73.81   38.83
  -2   2  13  159.24   19.62
  -2   2  13  156.86   21.56
  -2   2  13   79.94   38.67
   1  -2 -13   66.48   16.72
   1  -2 -13    1.28   41.19
   1  -2 -13   55.60   16.81
  -1   2  13   60.70   15.27
  -1   2  13   34.07   24.00
  -1   2  13   55.71   12.87
   0  -2 -13  150.08   25.28
   0  -2 -13  120.89   22.20
   0  -2 -13  151.03   50.22
   0   2  13  114.28   18.87
   0   2  13  108.82   35.25
   0   2  13  125.80   22.57
  -1  -2 -13    7.29    9.82
  -1  -2 -13   18.38   39.21
   1   2  13    9.44    9.50
   1   2  13   14.51   25.54
   1   2  13   23.58    9.33
  -2  -2 -13   83.51   46.55
  -2  -2 -13  123.75   21.69
   2   2  13   92.47   21.31
   2   2  13   87.59   16.58
   2   2  13  121.34   36.22
  -3  -2 -13  -21.03   37.65
  -3  -2 -13   25.88   11.52
   3   2  13   52.60   16.86
   3   2  13   84.96   16.07
   3   2  13   11.79   21.62
  -4  -2 -13  117.61   21.40
   4   2  13  138.91   27.63
   4   2  13  155.03   22.09
   4   2  13   41.78   31.22
  -5  -2 -13  -17.16   35.96
  -5  -2 -13   66.10   15.19
  -5  -2 -13   30.29    7.78
   5   2  13   51.87   13.43
   5   2  13   15.31   14.84
   5   2  13   53.21   34.20
  -6  -2 -13  128.84   19.38
  -6  -2 -13   -7.75   43.44
   6   2  13  112.93   20.48
   6   2  13  113.54   27.05
   6   2  13  129.59   39.59
   6  -3 -13   74.97   61.39
   6  -3 -13   50.52   17.03
   6  -3 -13   52.03   16.28
  -6   3  13   59.79   13.47
  -6   3  13  -15.76   43.36
   5  -3 -13   60.95   18.67
   5  -3 -13   30.55   15.03
  -5   3  13  106.04   45.99
  -5   3  13   66.12   15.25
  -5   3  13   75.83   12.75
   4  -3 -13   38.11   48.63
   4  -3 -13   28.97   13.81
   4  -3 -13   46.67   14.59
  -4   3  13   53.67   11.77
  -4   3  13   59.12   14.00
  -4   3  13   49.92   32.21
   3  -3 -13  128.70   51.69
   3  -3 -13  133.91   25.31
   3  -3 -13  123.71   22.58
  -3   3  13  109.60   19.02
  -3   3  13  157.77   18.52
  -3   3  13   78.50   32.84
   2  -3 -13   23.82   42.72
   2  -3 -13   76.50   18.06
   2  -3 -13   58.69   16.46
  -2   3  13   25.25   30.57
  -2   3  13   92.37   16.72
  -2   3  13   73.26   15.55
   1  -3 -13  185.56   50.82
   1  -3 -13  176.81   27.12
   1  -3 -13  200.06   28.82
  -1   3  13  137.42   36.71
  -1   3  13  182.38   20.64
  -1   3  13  188.77   23.02
   0  -3 -13   57.37   35.58
   0  -3 -13   57.38   15.57
   0  -3 -13   33.03   12.94
   0   3  13   51.86   12.56
   0   3  13   25.78   27.44
   0   3  13   58.79   14.99
  -1  -3 -13  158.52   25.40
  -1  -3 -13  183.77   46.65
   1   3  13  166.14   37.65
   1   3  13  152.52   24.93
   1   3  13  124.81   19.61
  -2  -3 -13   29.06   11.99
  -2  -3 -13   26.96   37.28
   2   3  13   38.33   11.39
   2   3  13   25.38   23.10
   2   3  13   55.76   16.03
  -3  -3 -13  132.96   22.52
   3   3  13  113.26   23.94
   3   3  13  156.64   38.30
   3   3  13  107.65   18.12
  -4  -3 -13  -37.92   38.36
  -4  -3 -13   54.70   14.47
   4   3  13   59.18   13.52
   4   3  13   13.76   25.86
   4   3  13   34.83   15.75
  -5  -3 -13  100.03   17.42
  -5  -3 -13   34.41   40.15
   5   3  13  100.01   23.22
   5   3  13   96.36   16.51
   5   3  13   65.79   31.96
  -6  -3 -13   -1.36    3.87
  -6  -3 -13   31.27   46.05
  -6  -3 -13   11.82    8.79
   6   3  13   39.99   16.46
   6   3  13   24.07   27.72
   6   3  13   17.78    8.92
  -7  -3 -13  -12.33   46.22
  -7  -3 -13    0.78    3.21
   7   3  13    2.64   32.86
   7   3  13   59.41   19.56
   6  -4 -13   61.84   17.27
   6  -4 -13   31.73   62.57
   6  -4 -13   28.57   14.84
  -6   4  13   73.90   48.90
  -6   4  13   56.76   10.17
  -6   4  13   69.59   14.74
   5  -4 -13   10.71    9.20
   5  -4 -13 -102.23   59.83
   5  -4 -13   21.00   12.83
  -5   4  13   -6.53   39.78
  -5   4  13   48.33   11.08
  -5   4  13   60.44   13.61
   4  -4 -13  114.22   21.73
   4  -4 -13   61.21   41.02
   4  -4 -13  117.42   24.15
  -4   4  13   69.63   34.54
  -4   4  13   61.98   13.11
  -4   4  13   75.17   15.35
   3  -4 -13   68.97   17.02
   3  -4 -13   -6.64   43.73
   3  -4 -13   45.66   14.42
  -3   4  13   47.43   29.15
  -3   4  13   70.78   14.20
  -3   4  13   56.27   12.29
  -3   4  13   46.27   11.67
   2  -4 -13   98.56   20.47
   2  -4 -13   74.09   38.17
   2  -4 -13   84.91   17.82
  -2   4  13   67.76   13.40
  -2   4  13   62.81   33.09
  -2   4  13   77.38   15.06
  -2   4  13  131.72   16.63
   1  -4 -13   78.94   17.85
   1  -4 -13   74.74   17.32
   1  -4 -13   56.11   34.51
  -1   4  13   65.43   31.54
  -1   4  13   75.54   12.88
  -1   4  13   55.37   12.63
  -1   4  13   71.46   15.86
   0  -4 -13  175.80   27.21
   0  -4 -13  222.42   55.28
   0  -4 -13  164.47   26.21
   0   4  13  225.87   24.75
   0   4  13  209.94   19.38
   0   4  13  178.46   20.82
   0   4  13  284.05   52.69
  -1  -4 -13   79.98   17.33
  -1  -4 -13  170.74   54.55
   1   4  13   64.32   11.55
   1   4  13   89.21   15.71
   1   4  13   52.68   31.41
   1   4  13   68.66   17.00
  -2  -4 -13  248.65   26.96
  -2  -4 -13  238.05   57.76
   2   4  13  239.37   27.73
   2   4  13  257.69   21.77
   2   4  13  243.32   24.13
   2   4  13  207.46   44.34
  -3  -4 -13   75.95   15.95
  -3  -4 -13   15.38   35.34
   3   4  13   63.00   10.83
   3   4  13   44.83   26.97
   3   4  13   55.86   16.86
   3   4  13   58.73   12.80
  -4  -4 -13   37.44   36.04
  -4  -4 -13  156.24   22.48
  -4  -4 -13  153.40   22.06
   4   4  13  178.80   19.05
   4   4  13   97.26   33.31
   4   4  13  140.53   26.41
  -5  -4 -13   19.90    8.50
  -5  -4 -13  -14.93   37.63
  -5  -4 -13   43.15    8.42
   5   4  13   23.72   12.72
   5   4  13   46.16   11.75
   5   4  13    7.02   25.47
  -6  -4 -13   51.15    8.30
  -6  -4 -13    3.28   40.80
   6   4  13   83.90   21.57
   6   4  13  114.38   17.65
   6   4  13   84.29   33.45
  -7  -4 -13   64.11   47.23
   7   4  13   35.51   11.26
   7   4  13   34.38   15.67
   7   4  13   -5.85   28.67
   6  -5 -13   37.08   15.32
   6  -5 -13   40.19   13.88
   6  -5 -13   47.88   67.27
  -6   5  13   55.09   51.75
  -6   5  13   39.51   10.21
  -6   5  13   78.23   14.41
   5  -5 -13  116.86   24.63
   5  -5 -13  105.28   53.35
   5  -5 -13  129.16   24.92
  -5   5  13   63.29   48.16
  -5   5  13  140.83   17.26
  -5   5  13  115.61   18.36
   4  -5 -13   49.27   17.11
   4  -5 -13   43.99   14.68
   4  -5 -13   90.91   53.42
  -4   5  13   41.81   10.93
  -4   5  13   46.51   42.79
  -4   5  13   54.75   12.87
   3  -5 -13   74.28   18.60
   3  -5 -13   95.67   47.34
   3  -5 -13  121.07   23.11
  -3   5  13   79.74   41.88
  -3   5  13   73.12   14.02
  -3   5  13  116.01   18.83
   2  -5 -13   32.12   12.28
   2  -5 -13    0.36   34.14
   2  -5 -13   45.08   15.06
  -2   5  13   13.32   34.82
  -2   5  13   43.69   10.75
  -2   5  13   26.43    9.98
   1  -5 -13   84.83   44.56
   1  -5 -13   79.01   18.83
   1  -5 -13  101.65   20.01
  -1   5  13  105.46   15.35
  -1   5  13  102.40   18.19
  -1   5  13  111.62   41.93
   0  -5 -13   22.94   38.93
   0  -5 -13   31.33   12.45
   0  -5 -13   31.65   11.50
   0   5  13   29.48   11.48
   0   5  13   47.25   10.03
   0   5  13   58.53   32.79
  -1  -5 -13  141.94   22.65
  -1  -5 -13  152.99   42.58
  -1  -5 -13  138.84   23.40
   1   5  13  125.86   37.09
   1   5  13  158.75   16.20
   1   5  13  137.41   22.91
  -2  -5 -13   41.80   37.47
  -2  -5 -13   30.15   11.01
   2   5  13   71.84   28.80
   2   5  13   21.40    8.90
   2   5  13   29.52   12.52
   2   5  13   31.24    8.17
  -3  -5 -13  133.01   14.92
  -3  -5 -13  138.05   20.12
  -3  -5 -13   25.43   31.28
   3   5  13  191.20   28.35
   3   5  13  123.49   34.16
   3   5  13  113.49   18.05
   3   5  13  142.91   14.97
  -4  -5 -13   16.99    6.77
  -4  -5 -13   31.75    9.13
   4   5  13   26.58    7.55
   4   5  13   12.72    8.25
   4   5  13   18.57   10.69
   4   5  13    7.76   23.55
  -5  -5 -13   83.65   13.68
  -5  -5 -13   20.27   38.91
   5   5  13  120.83   18.20
   5   5  13   95.98   31.37
   5   5  13  129.10   24.95
   5   5  13  122.62   12.64
  -6  -5 -13  -25.05   39.62
   6   5  13   21.75    5.80
   6   5  13   26.21   13.79
   6   5  13   13.28    8.46
   6   5  13   41.31   29.00
  -7  -5 -13   16.40   46.79
   7   5  13  113.09   36.40
   7   5  13  111.41   24.91
   7   5  13  134.64   19.57
   6  -6 -13  112.92   22.43
   6  -6 -13   92.45   22.79
  -6   6  13   60.75   12.84
  -6   6  13  139.04   57.57
  -6   6  13   67.73   15.15
   5  -6 -13   63.32   18.79
   5  -6 -13   52.15   15.77
   5  -6 -13  -27.25   56.47
  -5   6  13   23.96   35.97
  -5   6  13   41.96   11.07
  -5   6  13   53.38   13.45
   4  -6 -13   14.95   49.96
   4  -6 -13   56.04   16.61
   4  -6 -13   60.88   18.01
  -4   6  13   31.94   43.25
  -4   6  13   42.69   11.21
  -4   6  13   67.81   14.54
   3  -6 -13  -16.35   47.32
   3  -6 -13   27.02   14.32
   3  -6 -13   19.01   11.22
  -3   6  13   24.60    9.15
  -3   6  13   40.11   10.13
  -3   6  13   16.24   31.22
   2  -6 -13   51.35   14.62
   2  -6 -13   74.46   17.73
   2  -6 -13   37.76   49.66
  -2   6  13  112.03   41.77
  -2   6  13   79.29   13.25
  -2   6  13   87.99   16.71
  -2   6  13   89.79   15.89
   1  -6 -13   17.44   11.69
   1  -6 -13   65.11   43.27
   1  -6 -13   44.05   13.34
  -1   6  13   58.31   14.30
  -1   6  13   31.47    9.00
  -1   6  13  -15.72   26.91
  -1   6  13   49.13   10.71
   0  -6 -13   49.17   14.84
   0  -6 -13   16.31   38.40
   0  -6 -13   67.44   15.96
   0   6  13   48.38   11.69
   0   6  13   33.71   34.00
   0   6  13   46.46   10.01
   0   6  13   53.90   15.14
  -1  -6 -13   32.24   10.35
  -1  -6 -13   -7.09   35.85
   1   6  13   13.21    7.34
   1   6  13    9.59    5.93
   1   6  13  -17.78   27.09
   1   6  13   13.80    9.50
  -2  -6 -13  114.89   17.54
  -2  -6 -13   43.92   38.89
   2   6  13   78.75   17.87
   2   6  13  102.59   32.70
   2   6  13   74.75   12.44
  -3  -6 -13   32.58   10.48
  -3  -6 -13   26.35    8.16
   3   6  13   28.76    7.46
   3   6  13   18.18   10.39
   3   6  13   20.51   25.39
  -4  -6 -13  159.28   16.33
   4   6  13  106.67   33.04
   4   6  13  126.86   15.40
   4   6  13  112.93   17.46
   4   6  13  105.90   22.09
  -5  -6 -13   13.63    5.28
  -5  -6 -13  -16.36   38.59
   5   6  13   36.03   13.57
   5   6  13   32.63    9.88
   5   6  13   35.89   25.11
   5   6  13   37.70    7.90
  -6  -6 -13   42.92   44.80
   6   6  13  121.47   34.42
   6   6  13  113.86   17.26
   6   6  13   98.96   23.40
   6   6  13  111.24   11.85
   5  -7 -13   67.49   18.81
   5  -7 -13   52.73   56.35
   5  -7 -13  105.37   23.80
  -5   7  13   56.61   53.91
  -5   7  13   86.11   15.43
  -5   7  13   84.72   16.94
   4  -7 -13   32.09   14.04
   4  -7 -13   46.42   14.56
   4  -7 -13   19.20   52.30
  -4   7  13   42.37   11.12
  -4   7  13   58.70   49.33
  -4   7  13   30.57   10.26
   3  -7 -13   92.01   19.00
   3  -7 -13  108.18   21.98
   3  -7 -13  104.54   59.24
  -3   7  13   95.81   15.48
  -3   7  13   63.22   45.25
  -3   7  13   74.85   14.72
   2  -7 -13   70.14   16.69
   2  -7 -13   81.23   42.64
   2  -7 -13   65.55   17.85
  -2   7  13   61.42   11.84
  -2   7  13   56.53   12.90
  -2   7  13    5.92   40.21
   1  -7 -13  160.55   26.49
   1  -7 -13   56.01   49.04
   1  -7 -13   89.22   19.05
  -1   7  13  102.38   17.34
  -1   7  13  109.62   16.07
  -1   7  13  137.82   43.20
   0  -7 -13   47.56   13.66
   0  -7 -13   34.71   41.20
   0  -7 -13   42.09   14.44
   0   7  13   38.00    9.24
   0   7  13    4.84   29.83
   0   7  13   35.12   10.50
  -1  -7 -13   51.66   13.32
  -1  -7 -13   -4.09   38.45
   1   7  13  108.61   19.90
   1   7  13   75.44   12.21
   1   7  13   78.44   34.12
   1   7  13   53.32   12.26
  -2  -7 -13    0.86   35.49
  -2  -7 -13   39.27   11.58
  -2  -7 -13   41.22   10.03
   2   7  13   42.05   27.46
   2   7  13   37.20   13.57
   2   7  13   38.52   10.25
   2   7  13   25.05    7.41
  -3  -7 -13   -8.24   35.12
  -3  -7 -13  111.83   15.43
  -3  -7 -13  113.24   16.40
   3   7  13   99.93   34.05
   3   7  13   93.52   15.26
   3   7  13  121.86   15.09
   3   7  13  110.48   21.44
  -4  -7 -13   18.54   40.21
   4   7  13   18.10    6.37
   4   7  13   66.08   17.91
   4   7  13   42.09   28.16
  -5  -7 -13   13.41   40.62
   5   7  13   96.02   20.37
   5   7  13   58.68   31.40
   5   7  13  115.82   13.74
  -6  -7 -13   54.27   44.88
   6   7  13   32.02    9.56
   6   7  13   42.21   15.45
   6   7  13   18.85   28.01
   6   7  13   30.34    7.10
   5  -8 -13  -46.39   48.47
   5  -8 -13   72.82   20.51
   5  -8 -13   47.44   14.99
  -5   8  13   -8.60   46.08
  -5   8  13   33.37   10.02
  -5   8  13   31.06   10.45
   4  -8 -13   82.61   18.85
   4  -8 -13   56.86   17.76
   4  -8 -13   30.67   59.80
  -4   8  13   60.69   14.53
  -4   8  13   87.35   15.33
  -4   8  13   36.02   48.44
   3  -8 -13   37.39   12.79
   3  -8 -13   -2.10   49.67
   3  -8 -13   56.82   18.40
  -3   8  13   44.22   38.68
  -3   8  13   32.67   11.44
  -3   8  13   19.53    8.47
   2  -8 -13   75.36   19.32
   2  -8 -13  116.41   20.71
   2  -8 -13  -70.34   48.01
  -2   8  13   67.97   38.57
  -2   8  13   75.70   15.21
  -2   8  13   77.92   13.83
   1  -8 -13   15.32   10.16
   1  -8 -13   54.27   16.29
   1  -8 -13    8.06   50.05
  -1   8  13   45.06   11.95
  -1   8  13   29.56    8.46
  -1   8  13    2.53   36.79
   0  -8 -13   10.52   40.66
   0  -8 -13  105.17   20.00
   0  -8 -13  114.29   20.20
   0   8  13  102.65   17.27
   0   8  13  109.77   15.49
   0   8  13   60.62   42.06
  -1  -8 -13   22.16   11.23
  -1  -8 -13   -4.59   41.20
   1   8  13   -1.75   31.58
   1   8  13   20.54    8.34
   1   8  13    6.99    5.87
  -2  -8 -13  -73.77   44.46
  -2  -8 -13   83.89   14.28
  -2  -8 -13  116.72   17.19
   2   8  13   80.11   14.48
   2   8  13  139.76   24.03
   2   8  13  111.82   14.85
   2   8  13   25.24   32.61
  -3  -8 -13  -43.80   37.58
  -3  -8 -13   38.58    9.23
   3   8  13   50.63   11.68
   3   8  13   29.13   11.65
   3   8  13   36.37    8.85
   3   8  13   75.65   31.89
  -4  -8 -13   10.00   41.71
   4   8  13   94.39   14.82
   4   8  13   98.55   13.48
   4   8  13   49.11   32.37
   4   8  13  125.82   23.96
  -5  -8 -13  -24.24   39.45
   5   8  13   15.41   11.79
   5   8  13   26.64    8.50
   5   8  13   31.66    7.96
   5   8  13   48.20   29.48
   4  -9 -13  -91.86   62.79
   4  -9 -13   36.56   13.84
   4  -9 -13   46.88   16.73
  -4   9  13   40.16   11.14
  -4   9  13   79.47   15.67
  -4   9  13   21.79   54.94
   3  -9 -13  109.50   23.76
   3  -9 -13  117.85   67.00
   3  -9 -13   71.01   17.11
  -3   9  13   80.53   15.05
  -3   9  13   76.70   16.13
  -3   9  13  127.71   47.26
   2  -9 -13   52.10   14.75
   2  -9 -13   68.67   16.38
   2  -9 -13   37.09   59.79
  -2   9  13   23.41   36.26
  -2   9  13   51.65   13.49
  -2   9  13   35.49   10.06
   1  -9 -13   84.26   17.76
   1  -9 -13  -36.91   50.29
   1  -9 -13   93.83   19.27
  -1   9  13   72.72   13.33
  -1   9  13   30.21   46.51
  -1   9  13   80.28   15.48
   0  -9 -13   55.80   14.65
   0  -9 -13   74.87   16.34
   0  -9 -13   -5.75   49.94
   0   9  13   54.83   11.98
   0   9  13   48.08   10.75
   0   9  13   14.68   41.86
  -1  -9 -13  -10.10   46.83
  -1  -9 -13  166.12   22.05
   1   9  13  130.78   47.80
   1   9  13  113.50   16.48
   1   9  13  135.73   19.55
  -2  -9 -13   49.01   11.29
  -2  -9 -13    7.66   45.36
   2   9  13  -14.42   31.85
   2   9  13   26.97    8.01
   2   9  13   30.96    9.68
  -3  -9 -13    8.91   44.35
   3   9  13   26.26   33.36
  -4  -9 -13  -38.71   40.69
   4   9  13   36.23   33.44
   4   9  13   19.35    6.74
   4   9  13    7.29    6.91
   4   9  13   10.44    9.54
   2 -10 -13   88.98   20.34
   2 -10 -13   64.93   15.33
   2 -10 -13   35.12   64.51
  -2  10  13   45.86   52.29
  -2  10  13   56.10   14.64
  -2  10  13   58.96   12.66
   1 -10 -13   25.90   11.23
   1 -10 -13   37.19   14.56
   1 -10 -13  -79.62   46.95
  -1  10  13  -50.37   39.77
  -1  10  13   24.47    9.54
  -1  10  13   35.60    8.87
   0 -10 -13  -38.84   48.62
   0 -10 -13  104.48   16.89
   0  10  13   45.19   10.99
   0  10  13   72.25   45.19
   0  10  13   76.11   15.19
  -1 -10 -13   58.78   12.58
  -1 -10 -13   -3.51   59.60
   1  10  13   50.12   10.92
   1  10  13   27.17   43.07
   1  10  13   24.25    8.85
  -2 -10 -13  -41.69   47.94
  -2 -10 -13   22.47    8.06
   2  10  13   55.58   41.36
   2  10  13   64.39   13.63
   2  10  13   65.02   11.80
   2   0 -14   98.28   21.92
   2   0 -14   64.97   16.32
   2   0 -14   22.96   57.53
  -2   0  14   47.95   13.51
  -2   0  14   38.90   41.57
  -2   0  14   62.41   15.44
   1   0 -14    4.78   48.86
   1   0 -14   44.54   14.98
   1   0 -14   -0.17    9.39
  -1   0  14   40.06   14.14
  -1   0  14   44.29   41.13
  -1   0  14   17.06   11.11
   0   0 -14   80.20   47.74
   0   0 -14  105.09   23.05
   0   0  14   75.27   37.34
   0   0  14   51.20   17.33
   0   0  14   93.88   18.83
  -1   0 -14   50.28   52.65
  -1   0 -14   42.27   15.34
   1   0  14   34.88   12.86
   1   0  14   21.51   35.02
   1   0  14   49.42   16.68
  -2   0 -14  104.78   22.94
  -2   0 -14   93.22   59.94
   2   0  14   51.93   15.37
   2   0  14   62.62   43.44
   2   0  14   91.59   23.09
  -3   0 -14  -26.20   57.30
  -3   0 -14   55.16   15.34
   3   0  14    7.48   11.66
   3   0  14   10.10   36.16
   4  -1 -14    8.73   10.80
   4  -1 -14   10.68   67.06
  -4   1  14  -29.29   40.23
   3  -1 -14  -27.17   54.51
   3  -1 -14   59.61   17.18
   3  -1 -14   62.28   17.26
  -3   1  14   44.29   12.96
  -3   1  14   30.26   37.23
  -3   1  14   54.54   13.51
   2  -1 -14   36.56   12.92
   2  -1 -14  -65.51   49.05
   2  -1 -14   40.12   14.16
  -2   1  14   25.77   10.65
  -2   1  14   42.73   12.51
  -2   1  14   39.86   38.54
   1  -1 -14  101.91   50.36
   1  -1 -14   46.47   16.13
   1  -1 -14   69.89   17.02
  -1   1  14   87.99   17.45
  -1   1  14   83.25   41.46
  -1   1  14   81.19   18.44
   0  -1 -14   11.75   36.39
   0  -1 -14   41.32   13.82
   0   1  14   40.40   35.82
   0   1  14   26.83   13.24
   0   1  14   20.59   10.21
  -1  -1 -14   65.52   17.74
  -1  -1 -14  -20.60   49.64
   1   1  14   55.66   38.06
   1   1  14   62.07   19.53
   1   1  14   67.30   15.68
  -2  -1 -14  -23.25   44.35
  -2  -1 -14   23.02   12.45
   2   1  14   15.80   12.92
   2   1  14   19.68    9.60
   2   1  14   33.18   29.02
  -3  -1 -14  115.16   22.28
  -3  -1 -14   52.90   54.25
   3   1  14   99.52   19.27
   3   1  14  173.43   46.82
   3   1  14   69.89   21.12
  -4  -1 -14   23.61   12.71
  -4  -1 -14  -65.84   36.57
   4   1  14    6.68   12.37
   4   1  14   11.00   35.56
   4   1  14   24.46    9.03
   4  -2 -14   64.57   17.54
   4  -2 -14   52.31   16.11
   4  -2 -14   75.62   57.26
  -4   2  14   40.62   12.80
  -4   2  14   41.23   10.92
  -4   2  14   78.66   46.52
   3  -2 -14   14.97   11.29
   3  -2 -14   31.43   13.86
  -3   2  14   -5.55   36.25
  -3   2  14   34.52   11.21
  -3   2  14   37.15   12.27
   2  -2 -14   97.37   21.31
   2  -2 -14   44.61   14.77
   2  -2 -14   18.01   51.55
  -2   2  14   69.56   15.53
  -2   2  14   76.52   15.88
  -2   2  14   65.95   41.35
   1  -2 -14   22.71   11.08
   1  -2 -14  -29.83   47.29
   1  -2 -14   30.36   13.57
  -1   2  14   24.49    9.24
  -1   2  14   29.86   12.24
  -1   2  14   62.98   32.79
   0  -2 -14   56.35   15.84
   0  -2 -14   56.00   15.57
   0  -2 -14  100.02   54.52
   0   2  14   92.21   40.01
   0   2  14   73.40   17.95
   0   2  14   49.77   13.63
  -1  -2 -14   29.97   13.09
  -1  -2 -14  -20.75   40.26
   1   2  14   24.41   12.47
   1   2  14   20.94   23.88
   1   2  14   26.81    9.43
  -2  -2 -14   36.52   13.36
  -2  -2 -14  -47.55   46.61
   2   2  14   80.96   15.60
   2   2  14   50.15   17.02
   2   2  14   62.59   35.20
  -3  -2 -14   34.01   48.81
  -3  -2 -14   21.32   11.83
   3   2  14   15.94   12.79
   3   2  14   26.92    9.98
   3   2  14   44.55   37.39
  -4  -2 -14  -15.25   49.92
  -4  -2 -14  153.85   25.15
   4   2  14   81.89   17.36
   4   2  14   67.68   20.86
  -5  -2 -14  -11.93   51.26
  -5  -2 -14    8.78    9.42
   5   2  14    6.75    8.78
   5   2  14  -31.68   35.00
   5   2  14    3.12   12.65
   5  -3 -14   51.29   17.95
   5  -3 -14   89.59   64.18
   5  -3 -14   82.46   20.39
  -5   3  14   56.69   45.29
  -5   3  14   72.78   15.89
   4  -3 -14   34.51   15.68
   4  -3 -14   18.28   10.85
  -4   3  14  -17.24   42.07
  -4   3  14   10.55    8.56
  -4   3  14   24.58    8.56
   3  -3 -14   19.57   39.68
   3  -3 -14   33.31   14.16
   3  -3 -14   72.65   18.64
  -3   3  14   25.74   39.17
  -3   3  14   56.84   12.96
  -3   3  14   39.29   11.90
   2  -3 -14   27.76   13.38
   2  -3 -14   32.15   12.07
   2  -3 -14   -7.94   47.72
  -2   3  14   27.97   38.61
  -2   3  14   14.86    9.92
  -2   3  14   36.69   11.72
   1  -3 -14   77.60   18.95
   1  -3 -14   31.47   53.95
   1  -3 -14   50.65   16.87
  -1   3  14   60.98   14.42
  -1   3  14   63.41   15.90
  -1   3  14   87.29   35.59
   0  -3 -14   49.80   15.20
   0  -3 -14   45.06   47.69
   0  -3 -14   55.39   16.21
   0   3  14   46.60   14.44
   0   3  14   18.15    9.20
   0   3  14   32.93   31.47
  -1  -3 -14   91.85   20.04
  -1  -3 -14   30.10   37.50
   1   3  14   73.17   15.15
   1   3  14   31.25   33.20
   1   3  14   86.86   19.37
  -2  -3 -14   28.76   12.45
  -2  -3 -14   20.47   45.18
   2   3  14   20.78    8.76
   2   3  14   33.15   13.59
   2   3  14   20.15   31.92
  -3  -3 -14   67.86   16.31
  -3  -3 -14   12.57   46.03
   3   3  14   82.43   16.49
   3   3  14   94.73   22.62
   3   3  14   37.68   33.76
  -4  -3 -14   37.74   41.20
  -4  -3 -14   38.05   11.07
   4   3  14  -25.36   27.98
   4   3  14   39.58   16.11
   4   3  14   27.35   10.82
  -5  -3 -14  -29.19   48.26
  -5  -3 -14   36.98   11.59
   5   3  14   53.39   13.38
   5   3  14   38.17   33.41
   5   3  14   59.84   19.72
   5  -4 -14   53.01   48.87
   5  -4 -14   22.44   14.19
   5  -4 -14   57.81   17.68
  -5   4  14   76.64   49.85
  -5   4  14   68.43   14.53
  -5   4  14   29.87    9.10
   4  -4 -14  103.16   68.69
   4  -4 -14   82.65   22.00
   4  -4 -14   90.74   21.07
  -4   4  14   96.40   18.16
  -4   4  14   97.33   46.45
  -4   4  14   89.08   15.31
   3  -4 -14   45.72   47.66
   3  -4 -14   52.25   16.21
   3  -4 -14   75.99   17.81
  -3   4  14   50.77   13.70
  -3   4  14   -2.24   39.07
  -3   4  14   70.74   15.79
   2  -4 -14  113.70   22.37
   2  -4 -14   78.14   47.65
   2  -4 -14  110.38   22.80
  -2   4  14  155.52   47.24
  -2   4  14  107.57   18.49
  -2   4  14  125.68   20.45
   1  -4 -14   57.16   16.71
   1  -4 -14   53.17   15.64
   1  -4 -14   67.77   43.60
  -1   4  14   35.90   35.96
  -1   4  14   58.81   14.32
  -1   4  14   38.00   12.86
  -1   4  14   50.79   11.27
   0  -4 -14  180.71   61.07
   0  -4 -14  147.54   24.74
   0  -4 -14  185.76   27.87
   0   4  14  147.67   18.86
   0   4  14  120.42   22.03
   0   4  14   43.86   36.00
   0   4  14  129.86   20.43
  -1  -4 -14  -23.56   43.69
  -1  -4 -14   66.69   17.00
   1   4  14   29.47   27.49
   1   4  14   59.41   16.26
   1   4  14   54.11   12.71
  -2  -4 -14    3.65   44.66
  -2  -4 -14  114.64   21.27
   2   4  14   88.26   35.65
   2   4  14  158.55   26.19
   2   4  14  108.70   17.39
  -3  -4 -14   13.29   43.25
  -3  -4 -14   71.03   16.47
   3   4  14   32.27   11.18
   3   4  14   26.99   13.34
   3   4  14   30.28   30.89
  -4  -4 -14  -16.87   38.65
  -4  -4 -14  114.66   19.37
   4   4  14   74.18   33.38
   4   4  14   98.37   22.67
   4   4  14   82.23   15.65
  -5  -4 -14    8.79   47.32
  -5  -4 -14   29.51    9.31
   5   4  14   38.88   11.68
   5   4  14   27.64   14.75
   5   4  14   42.35   33.69
   5  -5 -14   89.94   21.54
   5  -5 -14   43.83   16.79
  -5   5  14   63.34   11.88
  -5   5  14   55.34   13.48
  -5   5  14   56.16   13.25
  -5   5  14   47.95   47.39
   4  -5 -14   77.80   18.93
   4  -5 -14   88.66   21.94
   4  -5 -14   89.90   65.70
  -4   5  14  110.76   49.03
  -4   5  14   63.43   13.79
  -4   5  14   91.36   16.64
   3  -5 -14   -5.78   58.10
   3  -5 -14  100.45   22.63
   3  -5 -14   74.76   17.23
  -3   5  14   54.03   13.58
  -3   5  14   82.95   46.22
  -3   5  14   94.05   15.57
   2  -5 -14   46.29   15.12
   2  -5 -14  -99.99   47.89
   2  -5 -14   29.17   11.41
  -2   5  14   66.04   14.93
  -2   5  14   49.09   11.75
  -2   5  14   36.58   39.79
   1  -5 -14   43.54   47.04
   1  -5 -14  108.25   22.20
   1  -5 -14  101.30   19.84
  -1   5  14   71.97   13.53
  -1   5  14   88.35   37.90
  -1   5  14   80.13   15.79
  -1   5  14   92.32   17.86
   0  -5 -14  -14.43   43.20
   0  -5 -14   50.26   14.44
   0  -5 -14   46.54   14.07
   0   5  14   76.22   35.91
   0   5  14   23.82   10.33
   0   5  14   71.71   16.24
   0   5  14   27.49    9.37
  -1  -5 -14  116.56   21.15
  -1  -5 -14   -4.43   33.28
   1   5  14   91.64   19.33
   1   5  14  142.38   39.31
   1   5  14  114.44   16.00
   1   5  14  121.93   19.79
  -2  -5 -14    2.95   37.09
  -2  -5 -14   74.70   16.70
   2   5  14   19.31   25.10
   2   5  14   62.68   13.64
   2   5  14   45.83   10.28
   2   5  14   75.89   18.50
  -3  -5 -14  118.53   19.42
  -3  -5 -14  -10.70   43.17
   3   5  14  146.56   40.35
   3   5  14   97.45   14.35
   3   5  14  134.79   19.71
   3   5  14  100.81   21.88
  -4  -5 -14   15.51   44.72
  -4  -5 -14   37.53   10.69
   4   5  14   27.62   12.37
   4   5  14   -3.93   28.63
   4   5  14   35.67   10.76
   4   5  14   23.45    7.05
  -5  -5 -14   -3.00   48.27
  -5  -5 -14   -0.34    3.11
   5   5  14    8.20   30.07
   5  -6 -14   64.88   17.78
   5  -6 -14   52.25   19.14
  -5   6  14  -30.61   47.63
  -5   6  14   55.69   12.88
   4  -6 -14   74.66   19.84
   4  -6 -14   56.86   65.39
   4  -6 -14   89.32   22.39
  -4   6  14  101.17   18.37
  -4   6  14   66.08   14.03
  -4   6  14   67.49   14.72
  -4   6  14   70.19   52.63
   3  -6 -14   40.55   16.58
   3  -6 -14   59.83   17.35
   3  -6 -14   10.10   58.84
  -3   6  14   30.25   41.79
  -3   6  14   54.72   13.99
  -3   6  14   39.06   11.12
  -3   6  14   39.89   11.88
   2  -6 -14   68.52   16.90
   2  -6 -14   84.81   58.05
   2  -6 -14   65.93   18.14
  -2   6  14   77.29   16.26
  -2   6  14   97.19   17.16
  -2   6  14   70.87   41.56
  -2   6  14   40.36   10.37
   1  -6 -14   49.88   16.00
   1  -6 -14   52.83   15.14
   1  -6 -14   19.50   36.88
  -1   6  14   99.74   36.97
  -1   6  14   57.19   14.92
  -1   6  14   45.10   11.15
   0  -6 -14   79.61   17.10
   0  -6 -14    3.09   47.31
   0  -6 -14   72.95   17.25
   0   6  14  110.21   20.73
   0   6  14  113.86   15.99
   0   6  14   38.89   34.05
  -1  -6 -14   43.20   44.76
  -1  -6 -14   41.95   13.07
   1   6  14   23.70   31.18
   1   6  14   66.81   16.53
   1   6  14   54.95   11.24
  -2  -6 -14  135.30   20.89
  -2  -6 -14  -26.20   43.69
   2   6  14  126.43   16.34
   2   6  14  108.09   21.86
   2   6  14  146.46   39.93
  -3  -6 -14   59.81   14.67
  -3  -6 -14   58.18   44.42
   3   6  14   63.75   17.20
   3   6  14   64.81   13.87
   3   6  14  -31.53   26.80
   3   6  14   71.02   11.54
  -4  -6 -14   75.52   14.25
  -4  -6 -14   53.59   45.56
   4   6  14  108.61   23.66
   4   6  14   99.44   17.10
   4   6  14   80.78   36.36
   4   6  14  111.72   14.60
  -5  -6 -14   -0.37    4.42
  -5  -6 -14   -2.15   46.17
   5   6  14   39.18   14.38
   5   6  14   33.30    7.82
   5   6  14   30.53   31.03
   5   6  14   11.65    8.01
   4  -7 -14   44.12   14.45
   4  -7 -14   22.90   14.68
   4  -7 -14   -5.17   58.20
  -4   7  14   86.84   50.34
  -4   7  14   27.43    8.98
  -4   7  14   35.04   11.78
   3  -7 -14 -105.85   54.23
   3  -7 -14   55.88   17.51
   3  -7 -14   60.64   16.92
  -3   7  14   82.10   50.41
  -3   7  14   36.07   11.74
  -3   7  14   56.94   12.59
   2  -7 -14   15.16   10.08
   2  -7 -14  -26.80   51.51
   2  -7 -14   26.78   13.11
  -2   7  14   13.26    7.87
  -2   7  14   10.47    8.17
  -2   7  14   34.49   11.52
  -2   7  14  105.42   49.95
   1  -7 -14   80.14   17.73
   1  -7 -14    9.74   54.77
   1  -7 -14   71.13   17.23
  -1   7  14   52.73   11.15
  -1   7  14   84.37   18.33
  -1   7  14   44.49   12.61
  -1   7  14   77.33   44.21
   0  -7 -14  -14.83   47.70
   0  -7 -14   31.87   12.32
   0  -7 -14   52.56   14.12
   0   7  14   -7.14   34.97
   0   7  14   29.09    9.68
   0   7  14   20.32   10.42
   0   7  14   28.67    8.99
  -1  -7 -14   52.97   48.41
  -1  -7 -14   45.07   13.93
   1   7  14   71.27   35.27
   1   7  14   43.09   10.31
   1   7  14   31.12   10.57
   1   7  14   49.08   15.15
  -2  -7 -14   28.18   11.60
  -2  -7 -14  -36.43   38.10
   2   7  14    9.52    9.74
   2   7  14   20.50   32.22
   2   7  14    4.68    5.51
   2   7  14   33.10    9.87
  -3  -7 -14  114.09   17.46
   3   7  14   70.17   36.89
   3   7  14  114.67   22.62
   3   7  14   72.24   12.39
  -4  -7 -14  -26.92   44.00
  -4  -7 -14   22.45    7.82
   4   7  14   34.77   13.37
   4   7  14   38.83   32.54
   4   7  14   47.62    9.51
  -5  -7 -14   16.57   48.40
   5   7  14   87.85   36.23
   3  -8 -14   34.01   14.01
   3  -8 -14   13.44    9.98
   3  -8 -14   50.18   66.67
  -3   8  14   18.91    7.98
  -3   8  14   17.47    8.78
  -3   8  14   11.74   48.26
   2  -8 -14   75.27   18.77
   2  -8 -14   21.06   54.53
   2  -8 -14   59.46   17.30
  -2   8  14   59.45   13.31
  -2   8  14   50.36   50.06
  -2   8  14   48.76   11.75
   1  -8 -14   22.92   51.71
   1  -8 -14   27.31   12.63
   1  -8 -14   29.03   11.68
  -1   8  14   35.29    9.54
  -1   8  14  -13.78   41.85
  -1   8  14   30.26   10.42
   0  -8 -14   61.91   16.51
   0  -8 -14   86.37   19.17
   0  -8 -14   28.10   53.93
   0   8  14   32.50   36.87
   0   8  14   64.05   12.58
   0   8  14   81.14   15.16
  -1  -8 -14    7.55    8.69
  -1  -8 -14   -7.56   47.38
   1   8  14   16.94   11.42
   1   8  14   17.25    8.66
   1   8  14    5.50    5.43
   1   8  14   38.66   37.78
  -2  -8 -14   79.18   15.92
   2   8  14    8.56   35.33
   2   8  14   74.88   12.19
   2   8  14   92.10   20.83
   2   8  14   47.63   12.41
  -3  -8 -14   43.16   49.30
   3   8  14   27.37    9.63
   3   8  14  -19.10   32.11
   3   8  14   26.74   12.54
   3   8  14   15.74    6.98
  -4  -8 -14   -0.53    1.87
  -4  -8 -14   -0.43   47.10
  -4  -8 -14   -1.09    2.27
   4   8  14   88.93   38.71
   4   8  14   52.91   16.41
   2  -9 -14   43.56   66.50
   2  -9 -14   47.13   14.87
   2  -9 -14   67.23   16.75
  -2   9  14   46.46   11.68
  -2   9  14   -6.34   50.35
   1  -9 -14    4.26   54.81
   1  -9 -14   80.57   18.33
   1  -9 -14   57.98   15.15
  -1   9  14   46.79   11.43
  -1   9  14   61.46   51.62
  -1   9  14   48.76   12.78
   0  -9 -14   41.49   12.46
   0  -9 -14   25.36    9.69
   0  -9 -14  -49.98   58.19
   0   9  14   19.57    8.38
   0   9  14   20.05    9.70
   0   9  14  -72.77   40.75
  -1  -9 -14  103.30   17.31
  -1  -9 -14   23.50   52.90
   1   9  14   49.35   43.33
   1   9  14   92.47   14.81
   1   9  14   50.14   12.57
  -2  -9 -14    9.11   54.86
  -2  -9 -14   24.82    9.22
   2   9  14   11.45    7.06
   2   9  14   25.77    9.48
   2   9  14   63.11   39.24
   2   9  14   35.35   14.86
   1  -2 -15   40.49   14.56
   1  -2 -15   47.31   13.76
   1  -2 -15   11.23   63.55
  -1   2  15   12.08   11.23
  -1   2  15  -18.03   42.15
  -1   2  15   41.72   13.16
   0  -2 -15   42.95   14.67
   0  -2 -15  -23.77   43.28
   0   2  15   18.12   37.51
   0   2  15   42.15   13.01
   0   2  15   34.68   14.42
  -1  -2 -15   69.34   17.67
  -1  -2 -15   37.43   61.95
   1   2  15   33.26   15.20
   1   2  15   38.40   12.82
   1   2  15  -37.57   37.31
  -2  -2 -15  -33.89   53.21
  -2  -2 -15   67.68   16.99
   2   2  15   69.01   20.69
   2   2  15   30.19   39.38
   2  -3 -15   37.26   14.71
   2  -3 -15   24.81   13.37
   2  -3 -15  -50.54   59.22
  -2   3  15   12.87    9.74
  -2   3  15   10.47   42.51
  -2   3  15   20.93   10.23
   1  -3 -15   79.31   19.34
   1  -3 -15   81.35   64.38
   1  -3 -15   83.04   20.77
  -1   3  15   67.05   14.89
  -1   3  15   73.39   17.59
  -1   3  15   31.48   33.36
   0  -3 -15   30.52   12.38
   0  -3 -15   37.18   14.02
   0  -3 -15    4.95   58.79
   0   3  15   41.31   14.58
   0   3  15   29.96   10.28
   0   3  15   74.88   37.99
  -1  -3 -15  -47.40   50.32
  -1  -3 -15   53.13   16.75
   1   3  15   14.58   32.11
   1   3  15   77.22   18.80
   1   3  15   82.80   16.53
  -2  -3 -15   38.80   52.50
  -2  -3 -15    6.95    9.85
   2   3  15   35.93   15.03
   2   3  15   16.53   10.01
   2   3  15  -53.74   35.45
  -3  -3 -15   64.87   15.97
  -3  -3 -15  -55.44   53.63
   3   3  15    4.85   38.90
   3   3  15   70.70   15.96
   3   3  15   80.10   21.66
   3  -4 -15   28.15   12.67
   3  -4 -15   16.65   11.52
   3  -4 -15   16.81   57.89
  -3   4  15   19.37   42.65
  -3   4  15   19.09    9.97
  -3   4  15   33.99   11.53
   2  -4 -15   36.85   14.35
   2  -4 -15  -14.58   55.01
   2  -4 -15   38.15   15.39
  -2   4  15   49.73   13.28
  -2   4  15   27.55   11.54
  -2   4  15    6.47   39.97
   1  -4 -15   18.72   10.72
   1  -4 -15  -62.28   56.79
   1  -4 -15   27.61   12.61
  -1   4  15   36.18   11.22
  -1   4  15   32.14   12.74
  -1   4  15   -8.63   39.54
   0  -4 -15   18.88   51.40
   0  -4 -15   65.67   16.98
   0  -4 -15   95.14   21.61
   0   4  15   54.21   15.69
   0   4  15   59.47   14.17
   0   4  15   21.50   37.93
  -1  -4 -15   53.35   15.47
  -1  -4 -15   16.87   53.86
   1   4  15   40.24   11.41
   1   4  15   29.73   37.00
   1   4  15   48.51   15.90
  -2  -4 -15  101.21   20.32
  -2  -4 -15   34.78   57.91
   2   4  15   85.84   20.53
   2   4  15   59.90   42.39
   2   4  15   61.46   14.52
  -3  -4 -15  -36.73   58.99
  -3  -4 -15   41.74   12.99
   3   4  15    3.12   33.17
   3   4  15   45.13   12.39
   3   4  15   32.87   14.33
   3  -5 -15   46.52   16.46
   3  -5 -15   61.73   17.63
   3  -5 -15   51.80   68.62
  -3   5  15   39.74   12.68
  -3   5  15   33.76   38.11
  -3   5  15   35.90   11.86
   2  -5 -15    4.12   64.23
   2  -5 -15   24.25   11.40
   2  -5 -15   19.09   12.48
  -2   5  15   12.41    8.89
  -2   5  15   29.91   11.87
  -2   5  15    3.17   31.89
  -2   5  15   17.20    8.60
   1  -5 -15   40.90   14.11
   1  -5 -15   51.81   14.93
   1  -5 -15  -44.34   51.32
  -1   5  15   52.29   12.21
  -1   5  15   42.41   12.75
  -1   5  15   57.29   13.78
  -1   5  15   32.70   45.70
   0  -5 -15    9.44   58.75
   0  -5 -15   54.82   15.36
   0  -5 -15   39.76   13.84
   0   5  15   28.65   41.68
   0   5  15   43.86   14.15
   0   5  15   43.86   13.49
   0   5  15   32.30    9.56
  -1  -5 -15   86.03   18.98
  -1  -5 -15   16.62   52.20
   1   5  15   68.64   17.11
   1   5  15  102.25   18.18
   1   5  15   61.80   12.72
   1   5  15   77.20   38.38
  -2  -5 -15   57.16   58.40
  -2  -5 -15   30.67   13.32
   2   5  15   27.69    8.80
   2   5  15   55.91   12.53
   2   5  15   33.84   13.68
   2   5  15   55.38   37.16
  -3  -5 -15   72.50   16.95
  -3  -5 -15  -11.67   53.46
   3   5  15   73.93   15.45
   3   5  15   46.41   32.40
   3   5  15   38.50   14.66
   3  -6 -15  -87.29   64.26
  -3   6  15   37.91   39.51
   2  -6 -15   52.73   16.25
   2  -6 -15   71.73   19.29
   2  -6 -15  -53.51   45.93
  -2   6  15   79.96   14.39
  -2   6  15   70.46   15.52
  -2   6  15   11.25   45.35
   1  -6 -15  -80.84   58.80
   1  -6 -15   30.06   14.49
  -1   6  15  -35.75   43.36
  -1   6  15   59.68   12.73
  -1   6  15   30.82   12.21
   0  -6 -15   87.38   19.96
   0  -6 -15   35.95   60.91
   0  -6 -15   52.38   15.00
   0   6  15   84.75   14.75
   0   6  15  100.00   19.89
   0   6  15   72.40   45.44
  -1  -6 -15   38.65   13.40
  -1  -6 -15   14.79   54.40
   1   6  15   -3.89   33.21
   1   6  15   40.70   12.58
   1   6  15   12.37   10.40
   1   6  15   28.66    8.73
  -2  -6 -15   14.72   59.96
  -2  -6 -15   70.80   17.00
   2   6  15   71.44   13.36
   2   6  15  106.68   22.03
   2   6  15   98.04   17.54
   2   6  15   50.14   35.70
  -3  -6 -15   50.54   52.88
  -3  -6 -15   58.66   13.77
   3   6  15  -25.71   33.54
   3   6  15   39.03   10.09
   3   6  15   38.49   11.91
   3   6  15   45.58   16.12
   2  -7 -15   10.03   61.46
   2  -7 -15   31.06   14.42
   2  -7 -15   20.98   13.24
  -2   7  15   64.38   16.38
  -2   7  15  -13.21   49.58
  -2   7  15   41.66   12.57
   1  -7 -15   61.02   16.69
   1  -7 -15  -71.63   63.67
   1  -7 -15   50.11   16.41
  -1   7  15   79.37   18.13
  -1   7  15   67.95   39.08
  -1   7  15   89.39   15.15
  -1   7  15   79.64   16.49
   0  -7 -15   48.02   14.74
   0  -7 -15   36.66   13.26
   0  -7 -15   35.95   63.27
   0   7  15   12.05   33.86
   0   7  15   36.68   10.02
   0   7  15   40.71   13.94
  -1  -7 -15   42.79   55.24
  -1  -7 -15   58.65   14.33
   1   7  15  -16.01   40.17
   1   7  15   40.93   14.16
   1   7  15   56.09   12.20
  -2  -7 -15   98.36   60.40
  -2  -7 -15   57.13   14.29
   2   7  15    4.01    9.87
   2   7  15   26.67    8.85
   2   7  15   30.64   38.75
   0   0   0    0.00    0.00

_computing_structure_solution     'SHELXT 2018/2 (Sheldrick, 2018)'
;
_shelx_hkl_checksum                53125
_olex2_submission_special_instructions  'No special instructions were received'
loop_
  _twin_individual_id
  _twin_individual_mass_fraction_refined
 1 0.49729
 2 0.50271

