
#======================================================================
# CRYSTAL DATA
#----------------------------------------------------------------------
data_VESTA_phase_1

_chemical_name_common                  '3OQ_KNd                               '
_cell_length_a                         30.370001
_cell_length_b                         9.962600
_cell_length_c                         19.447001
_cell_angle_alpha                      90.000000
_cell_angle_beta                       129.022003
_cell_angle_gamma                      90.000000
_cell_volume                           4571.277616
_space_group_name_H-M_alt              'P 1'
_space_group_IT_number                 1

loop_
_space_group_symop_operation_xyz
   'x, y, z'

loop_
   _atom_site_label
   _atom_site_occupancy
   _atom_site_fract_x
   _atom_site_fract_y
   _atom_site_fract_z
   _atom_site_adp_type
   _atom_site_U_iso_or_equiv
   _atom_site_type_symbol
   C1         1.0     0.687281     0.931756     0.378178    Uiso  ? C
   C2         1.0     0.607996     0.136430     0.342490    Uiso  ? C
   C3         1.0     0.685637     0.088091     0.503804    Uiso  ? C
   C4         1.0     0.704016     0.078921     0.397708    Uiso  ? C
   C5         1.0     0.671751     0.154534     0.420385    Uiso  ? C
   C6         1.0     0.670601     0.937522     0.486762    Uiso  ? C
   C7         1.0     0.592187     0.986313     0.329168    Uiso  ? C
   C8         1.0     0.695632     0.387253     0.675310    Uiso  ? C
   C9         1.0     0.690496     0.404922     0.747595    Uiso  ? C
   C10        1.0     0.671164     0.645952     0.714688    Uiso  ? C
   C11        1.0     0.649342     0.514354     0.726018    Uiso  ? C
   C12        1.0     0.591725     0.476070     0.636823    Uiso  ? C
   C13        1.0     0.676502     0.629319     0.641331    Uiso  ? C
   C14        1.0     0.597478     0.465987     0.563637    Uiso  ? C
   C15        1.0     0.187470     0.431867     0.378224    Uiso  ? C
   C16        1.0     0.107691     0.636182     0.340750    Uiso  ? C
   C17        1.0     0.184823     0.588472     0.502519    Uiso  ? C
   C18        1.0     0.204250     0.579040     0.397850    Uiso  ? C
   C19        1.0     0.171343     0.654754     0.419287    Uiso  ? C
   C20        1.0     0.170100     0.437695     0.485667    Uiso  ? C
   C21        1.0     0.091890     0.486009     0.327722    Uiso  ? C
   C22        1.0     0.195549     0.887488     0.675589    Uiso  ? C
   C23        1.0     0.190568     0.905419     0.748085    Uiso  ? C
   C24        1.0     0.171007     0.146403     0.714590    Uiso  ? C
   C25        1.0     0.149306     0.014857     0.726244    Uiso  ? C
   C26        1.0     0.091712     0.976880     0.637102    Uiso  ? C
   C27        1.0     0.176621     0.129259     0.641599    Uiso  ? C
   C28        1.0     0.097295     0.966527     0.563742    Uiso  ? C
   C29        1.0     0.312530     0.931868     0.121776    Uiso  ? C
   C30        1.0     0.392309     0.136182     0.159249    Uiso  ? C
   C31        1.0     0.315177     0.088472     0.997481    Uiso  ? C
   C32        1.0     0.295750     0.079040     0.102150    Uiso  ? C
   C33        1.0     0.328657     0.154754     0.080713    Uiso  ? C
   C34        1.0     0.329899     0.937695     0.014332    Uiso  ? C
   C35        1.0     0.408110     0.986009     0.172278    Uiso  ? C
   C36        1.0     0.304451     0.387488     0.824411    Uiso  ? C
   C37        1.0     0.309432     0.405419     0.751915    Uiso  ? C
   C38        1.0     0.328993     0.646403     0.785410    Uiso  ? C
   C39        1.0     0.350693     0.514857     0.773756    Uiso  ? C
   C40        1.0     0.408288     0.476880     0.862898    Uiso  ? C
   C41        1.0     0.323379     0.629259     0.858401    Uiso  ? C
   C42        1.0     0.402705     0.466527     0.936258    Uiso  ? C
   C43        1.0     0.812718     0.431758     0.121821    Uiso  ? C
   C44        1.0     0.892003     0.636430     0.157511    Uiso  ? C
   C45        1.0     0.814364     0.588090     0.996195    Uiso  ? C
   C46        1.0     0.795984     0.578923     0.102291    Uiso  ? C
   C47        1.0     0.828248     0.654534     0.079613    Uiso  ? C
   C48        1.0     0.829400     0.437521     0.013238    Uiso  ? C
   C49        1.0     0.907812     0.486313     0.170832    Uiso  ? C
   C50        1.0     0.804368     0.887253     0.824690    Uiso  ? C
   C51        1.0     0.809504     0.904922     0.752404    Uiso  ? C
   C52        1.0     0.828835     0.145952     0.785312    Uiso  ? C
   C53        1.0     0.850658     0.014353     0.773981    Uiso  ? C
   C54        1.0     0.908275     0.976070     0.863177    Uiso  ? C
   C55        1.0     0.823497     0.129319     0.858669    Uiso  ? C
   C56        1.0     0.902522     0.965987     0.936363    Uiso  ? C
   C57        1.0     0.312718     0.068242     0.621821    Uiso  ? C
   C58        1.0     0.392003     0.863571     0.657511    Uiso  ? C
   C59        1.0     0.314364     0.911910     0.496195    Uiso  ? C
   C60        1.0     0.295984     0.921077     0.602291    Uiso  ? C
   C61        1.0     0.328248     0.845466     0.579613    Uiso  ? C
   C62        1.0     0.329400     0.062479     0.513238    Uiso  ? C
   C63        1.0     0.407813     0.013687     0.670832    Uiso  ? C
   C64        1.0     0.304368     0.612747     0.324690    Uiso  ? C
   C65        1.0     0.309504     0.595078     0.252404    Uiso  ? C
   C66        1.0     0.328835     0.354048     0.285311    Uiso  ? C
   C67        1.0     0.350658     0.485646     0.273981    Uiso  ? C
   C68        1.0     0.408275     0.523930     0.363177    Uiso  ? C
   C69        1.0     0.323497     0.370680     0.358668    Uiso  ? C
   C70        1.0     0.402522     0.534013     0.436363    Uiso  ? C
   C71        1.0     0.812530     0.568133     0.621775    Uiso  ? C
   C72        1.0     0.892309     0.363818     0.659249    Uiso  ? C
   C73        1.0     0.815176     0.411528     0.497481    Uiso  ? C
   C74        1.0     0.795750     0.420960     0.602150    Uiso  ? C
   C75        1.0     0.828657     0.345246     0.580713    Uiso  ? C
   C76        1.0     0.829899     0.562305     0.514332    Uiso  ? C
   C77        1.0     0.908110     0.513991     0.672278    Uiso  ? C
   C78        1.0     0.804451     0.112513     0.324411    Uiso  ? C
   C79        1.0     0.809433     0.094583     0.251916    Uiso  ? C
   C80        1.0     0.828993     0.853597     0.285410    Uiso  ? C
   C81        1.0     0.850694     0.985143     0.273756    Uiso  ? C
   C82        1.0     0.908288     0.023119     0.362899    Uiso  ? C
   C83        1.0     0.823379     0.870741     0.358401    Uiso  ? C
   C84        1.0     0.902705     0.033473     0.436258    Uiso  ? C
   C85        1.0     0.687470     0.068132     0.878224    Uiso  ? C
   C86        1.0     0.607691     0.863818     0.840750    Uiso  ? C
   C87        1.0     0.684823     0.911528     0.002519    Uiso  ? C
   C88        1.0     0.704250     0.920960     0.897850    Uiso  ? C
   C89        1.0     0.671343     0.845246     0.919286    Uiso  ? C
   C90        1.0     0.670100     0.062305     0.985667    Uiso  ? C
   C91        1.0     0.591890     0.013991     0.827721    Uiso  ? C
   C92        1.0     0.695549     0.612513     0.175589    Uiso  ? C
   C93        1.0     0.690567     0.594583     0.248084    Uiso  ? C
   C94        1.0     0.671007     0.353597     0.214589    Uiso  ? C
   C95        1.0     0.649306     0.485143     0.226244    Uiso  ? C
   C96        1.0     0.591712     0.523119     0.137101    Uiso  ? C
   C97        1.0     0.676621     0.370741     0.141599    Uiso  ? C
   C98        1.0     0.597295     0.533473     0.063742    Uiso  ? C
   C99        1.0     0.187282     0.568242     0.878179    Uiso  ? C
   C100       1.0     0.107997     0.363570     0.842489    Uiso  ? C
   C101       1.0     0.185636     0.411910     0.003805    Uiso  ? C
   C102       1.0     0.204016     0.421077     0.897709    Uiso  ? C
   C103       1.0     0.171752     0.345466     0.920386    Uiso  ? C
   C104       1.0     0.170600     0.562479     0.986762    Uiso  ? C
   C105       1.0     0.092187     0.513687     0.829168    Uiso  ? C
   C106       1.0     0.195632     0.112747     0.175310    Uiso  ? C
   C107       1.0     0.190496     0.095078     0.247595    Uiso  ? C
   C108       1.0     0.171164     0.854048     0.214688    Uiso  ? C
   C109       1.0     0.149342     0.985646     0.226018    Uiso  ? C
   C110       1.0     0.091725     0.023930     0.136823    Uiso  ? C
   C111       1.0     0.176502     0.870680     0.141331    Uiso  ? C
   C112       1.0     0.097478     0.034013     0.063637    Uiso  ? C
   H1         1.0     0.668390     0.906448     0.309490    Uiso  ? H
   H2         1.0     0.724682     0.867799     0.422502    Uiso  ? H
   H3         1.0     0.583556     0.192541     0.356890    Uiso  ? H
   H4         1.0     0.597539     0.178500     0.281741    Uiso  ? H
   H5         1.0     0.660853     0.138865     0.519521    Uiso  ? H
   H6         1.0     0.730560     0.102223     0.560594    Uiso  ? H
   H7         1.0     0.683547     0.260906     0.432059    Uiso  ? H
   H8         1.0     0.707686     0.872903     0.529915    Uiso  ? H
   H9         1.0     0.638790     0.909822     0.494026    Uiso  ? H
   H10        1.0     0.563458     0.963022     0.343578    Uiso  ? H
   H11        1.0     0.572880     0.951259     0.262130    Uiso  ? H
   H12        1.0     0.634305     0.801566     0.379418    Uiso  ? H
   H13        1.0     0.739536     0.402977     0.701741    Uiso  ? H
   H14        1.0     0.682011     0.285765     0.646940    Uiso  ? H
   H15        1.0     0.641328     0.727286     0.697250    Uiso  ? H
   H16        1.0     0.712242     0.673793     0.777398    Uiso  ? H
   H17        1.0     0.645728     0.522153     0.778519    Uiso  ? H
   H18        1.0     0.576870     0.380302     0.643459    Uiso  ? H
   H19        1.0     0.560573     0.553463     0.619715    Uiso  ? H
   H20        1.0     0.648527     0.697622     0.585580    Uiso  ? H
   H21        1.0     0.719900     0.643443     0.665338    Uiso  ? H
   H22        1.0     0.585660     0.366673     0.532720    Uiso  ? H
   H23        1.0     0.572589     0.541669     0.511574    Uiso  ? H
   H24        1.0     0.662521     0.479651     0.554693    Uiso  ? H
   H25        1.0     0.168883     0.408062     0.309634    Uiso  ? H
   H26        1.0     0.224697     0.367470     0.422491    Uiso  ? H
   H27        1.0     0.083224     0.693393     0.354692    Uiso  ? H
   H28        1.0     0.097886     0.677766     0.280322    Uiso  ? H
   H29        1.0     0.159631     0.639628     0.517335    Uiso  ? H
   H30        1.0     0.229644     0.603069     0.559625    Uiso  ? H
   H31        1.0     0.183079     0.761164     0.431066    Uiso  ? H
   H32        1.0     0.207360     0.373689     0.529168    Uiso  ? H
   H33        1.0     0.138755     0.410515     0.493960    Uiso  ? H
   H34        1.0     0.063092     0.461685     0.341905    Uiso  ? H
   H35        1.0     0.073111     0.450626     0.260995    Uiso  ? H
   H36        1.0     0.134147     0.301526     0.378572    Uiso  ? H
   H37        1.0     0.239421     0.903113     0.701957    Uiso  ? H
   H38        1.0     0.182137     0.785876     0.647607    Uiso  ? H
   H39        1.0     0.140485     0.226370     0.696352    Uiso  ? H
   H40        1.0     0.211916     0.174981     0.777312    Uiso  ? H
   H41        1.0     0.145690     0.023110     0.778714    Uiso  ? H
   H42        1.0     0.076716     0.881263     0.643426    Uiso  ? H
   H43        1.0     0.060625     0.054228     0.620341    Uiso  ? H
   H44        1.0     0.149104     0.198380     0.586265    Uiso  ? H
   H45        1.0     0.220082     0.142998     0.665787    Uiso  ? H
   H46        1.0     0.085433     0.867242     0.532489    Uiso  ? H
   H47        1.0     0.072355     0.042813     0.512113    Uiso  ? H
   H48        1.0     0.162336     0.979505     0.554763    Uiso  ? H
   H49        1.0     0.331117     0.908062     0.190366    Uiso  ? H
   H50        1.0     0.275303     0.867470     0.077509    Uiso  ? H
   H51        1.0     0.416776     0.193393     0.145308    Uiso  ? H
   H52        1.0     0.402115     0.177766     0.219678    Uiso  ? H
   H53        1.0     0.340369     0.139628     0.982665    Uiso  ? H
   H54        1.0     0.270356     0.103069     0.940375    Uiso  ? H
   H55        1.0     0.316921     0.261164     0.068934    Uiso  ? H
   H56        1.0     0.292640     0.873689     0.970832    Uiso  ? H
   H57        1.0     0.361245     0.910515     0.006040    Uiso  ? H
   H58        1.0     0.436908     0.961685     0.158095    Uiso  ? H
   H59        1.0     0.426889     0.950626     0.239005    Uiso  ? H
   H60        1.0     0.365853     0.801527     0.121428    Uiso  ? H
   H61        1.0     0.260579     0.403113     0.798043    Uiso  ? H
   H62        1.0     0.317863     0.285876     0.852393    Uiso  ? H
   H63        1.0     0.359515     0.726370     0.803648    Uiso  ? H
   H64        1.0     0.288084     0.674981     0.722688    Uiso  ? H
   H65        1.0     0.354310     0.523110     0.721286    Uiso  ? H
   H66        1.0     0.423284     0.381263     0.856574    Uiso  ? H
   H67        1.0     0.439375     0.554228     0.879659    Uiso  ? H
   H68        1.0     0.350895     0.698380     0.913735    Uiso  ? H
   H69        1.0     0.279918     0.642998     0.834213    Uiso  ? H
   H70        1.0     0.414567     0.367242     0.967511    Uiso  ? H
   H71        1.0     0.427645     0.542813     0.987887    Uiso  ? H
   H72        1.0     0.337664     0.479504     0.945237    Uiso  ? H
   H73        1.0     0.831609     0.406450     0.190509    Uiso  ? H
   H74        1.0     0.775317     0.367801     0.077497    Uiso  ? H
   H75        1.0     0.916443     0.692540     0.143110    Uiso  ? H
   H76        1.0     0.902460     0.678501     0.218259    Uiso  ? H
   H77        1.0     0.839148     0.638863     0.980478    Uiso  ? H
   H78        1.0     0.769440     0.602221     0.939405    Uiso  ? H
   H79        1.0     0.816452     0.760907     0.067939    Uiso  ? H
   H80        1.0     0.792314     0.372901     0.970085    Uiso  ? H
   H81        1.0     0.861210     0.409820     0.005974    Uiso  ? H
   H82        1.0     0.936542     0.463024     0.156421    Uiso  ? H
   H83        1.0     0.927120     0.451260     0.237870    Uiso  ? H
   H84        1.0     0.865695     0.301566     0.120582    Uiso  ? H
   H85        1.0     0.760464     0.902977     0.798258    Uiso  ? H
   H86        1.0     0.817988     0.785765     0.853060    Uiso  ? H
   H87        1.0     0.858672     0.227286     0.802750    Uiso  ? H
   H88        1.0     0.787758     0.173793     0.722602    Uiso  ? H
   H89        1.0     0.854272     0.022153     0.721480    Uiso  ? H
   H90        1.0     0.923129     0.880302     0.856541    Uiso  ? H
   H91        1.0     0.939426     0.053463     0.880284    Uiso  ? H
   H92        1.0     0.851473     0.197622     0.914420    Uiso  ? H
   H93        1.0     0.780100     0.143443     0.834662    Uiso  ? H
   H94        1.0     0.914340     0.866672     0.967279    Uiso  ? H
   H95        1.0     0.927411     0.041669     0.988426    Uiso  ? H
   H96        1.0     0.837479     0.979651     0.945306    Uiso  ? H
   H97        1.0     0.331609     0.093550     0.690509    Uiso  ? H
   H98        1.0     0.275317     0.132199     0.577497    Uiso  ? H
   H99        1.0     0.416443     0.807460     0.643110    Uiso  ? H
   H100       1.0     0.402460     0.821500     0.718259    Uiso  ? H
   H101       1.0     0.339148     0.861137     0.480478    Uiso  ? H
   H102       1.0     0.269440     0.897779     0.439405    Uiso  ? H
   H103       1.0     0.316452     0.739093     0.567939    Uiso  ? H
   H104       1.0     0.292314     0.127099     0.470085    Uiso  ? H
   H105       1.0     0.361210     0.090180     0.505974    Uiso  ? H
   H106       1.0     0.436542     0.036976     0.656421    Uiso  ? H
   H107       1.0     0.427120     0.048740     0.737870    Uiso  ? H
   H108       1.0     0.365695     0.198434     0.620582    Uiso  ? H
   H109       1.0     0.260464     0.597023     0.298258    Uiso  ? H
   H110       1.0     0.317989     0.714235     0.353060    Uiso  ? H
   H111       1.0     0.358672     0.272714     0.302750    Uiso  ? H
   H112       1.0     0.287758     0.326207     0.222602    Uiso  ? H
   H113       1.0     0.354272     0.477847     0.221480    Uiso  ? H
   H114       1.0     0.423129     0.619697     0.356541    Uiso  ? H
   H115       1.0     0.439426     0.446537     0.380284    Uiso  ? H
   H116       1.0     0.351473     0.302378     0.414420    Uiso  ? H
   H117       1.0     0.280100     0.356557     0.334662    Uiso  ? H
   H118       1.0     0.414340     0.633327     0.467279    Uiso  ? H
   H119       1.0     0.427411     0.458331     0.488425    Uiso  ? H
   H120       1.0     0.337479     0.520349     0.445306    Uiso  ? H
   H121       1.0     0.831117     0.591938     0.690366    Uiso  ? H
   H122       1.0     0.775303     0.632530     0.577509    Uiso  ? H
   H123       1.0     0.916776     0.306607     0.645308    Uiso  ? H
   H124       1.0     0.902114     0.322234     0.719678    Uiso  ? H
   H125       1.0     0.840369     0.360372     0.482665    Uiso  ? H
   H126       1.0     0.770356     0.396931     0.440375    Uiso  ? H
   H127       1.0     0.816921     0.238836     0.568934    Uiso  ? H
   H128       1.0     0.792640     0.626311     0.470832    Uiso  ? H
   H129       1.0     0.861244     0.589485     0.506040    Uiso  ? H
   H130       1.0     0.936908     0.538315     0.658095    Uiso  ? H
   H131       1.0     0.926889     0.549374     0.739005    Uiso  ? H
   H132       1.0     0.865853     0.698474     0.621428    Uiso  ? H
   H133       1.0     0.760579     0.096888     0.298042    Uiso  ? H
   H134       1.0     0.817863     0.214124     0.352394    Uiso  ? H
   H135       1.0     0.859515     0.773630     0.303648    Uiso  ? H
   H136       1.0     0.788084     0.825019     0.222688    Uiso  ? H
   H137       1.0     0.854311     0.976889     0.221286    Uiso  ? H
   H138       1.0     0.923284     0.118737     0.356574    Uiso  ? H
   H139       1.0     0.939375     0.945771     0.379659    Uiso  ? H
   H140       1.0     0.850895     0.801620     0.413735    Uiso  ? H
   H141       1.0     0.779918     0.857002     0.334213    Uiso  ? H
   H142       1.0     0.914567     0.132758     0.467511    Uiso  ? H
   H143       1.0     0.927645     0.957187     0.487887    Uiso  ? H
   H144       1.0     0.837664     0.020495     0.445237    Uiso  ? H
   H145       1.0     0.668883     0.091938     0.809634    Uiso  ? H
   H146       1.0     0.724697     0.132530     0.922491    Uiso  ? H
   H147       1.0     0.583224     0.806607     0.854692    Uiso  ? H
   H148       1.0     0.597885     0.822234     0.780321    Uiso  ? H
   H149       1.0     0.659631     0.860372     0.017335    Uiso  ? H
   H150       1.0     0.729644     0.896931     0.059625    Uiso  ? H
   H151       1.0     0.683079     0.738836     0.931066    Uiso  ? H
   H152       1.0     0.707360     0.126311     0.029168    Uiso  ? H
   H153       1.0     0.638755     0.089485     0.993960    Uiso  ? H
   H154       1.0     0.563092     0.038315     0.841905    Uiso  ? H
   H155       1.0     0.573111     0.049374     0.760995    Uiso  ? H
   H156       1.0     0.634146     0.198474     0.878572    Uiso  ? H
   H157       1.0     0.739421     0.596888     0.201957    Uiso  ? H
   H158       1.0     0.682137     0.714124     0.147606    Uiso  ? H
   H159       1.0     0.640485     0.273630     0.196352    Uiso  ? H
   H160       1.0     0.711916     0.325019     0.277312    Uiso  ? H
   H161       1.0     0.645689     0.476890     0.278714    Uiso  ? H
   H162       1.0     0.576716     0.618737     0.143426    Uiso  ? H
   H163       1.0     0.560625     0.445771     0.120340    Uiso  ? H
   H164       1.0     0.649104     0.301620     0.086265    Uiso  ? H
   H165       1.0     0.720082     0.357002     0.165787    Uiso  ? H
   H166       1.0     0.585433     0.632758     0.032489    Uiso  ? H
   H167       1.0     0.572355     0.457188     0.012113    Uiso  ? H
   H168       1.0     0.662336     0.520495     0.054763    Uiso  ? H
   H169       1.0     0.168391     0.593550     0.809490    Uiso  ? H
   H170       1.0     0.224683     0.632199     0.922503    Uiso  ? H
   H171       1.0     0.083557     0.307460     0.856890    Uiso  ? H
   H172       1.0     0.097540     0.321499     0.781741    Uiso  ? H
   H173       1.0     0.160852     0.361137     0.019522    Uiso  ? H
   H174       1.0     0.230560     0.397779     0.060595    Uiso  ? H
   H175       1.0     0.183547     0.239093     0.932061    Uiso  ? H
   H176       1.0     0.207686     0.627099     0.029915    Uiso  ? H
   H177       1.0     0.138789     0.590180     0.994025    Uiso  ? H
   H178       1.0     0.063458     0.536976     0.843579    Uiso  ? H
   H179       1.0     0.072880     0.548740     0.762130    Uiso  ? H
   H180       1.0     0.134305     0.698434     0.879418    Uiso  ? H
   H181       1.0     0.239536     0.097023     0.201741    Uiso  ? H
   H182       1.0     0.182011     0.214235     0.146940    Uiso  ? H
   H183       1.0     0.141328     0.772714     0.197250    Uiso  ? H
   H184       1.0     0.212242     0.826207     0.277398    Uiso  ? H
   H185       1.0     0.145728     0.977847     0.278519    Uiso  ? H
   H186       1.0     0.076870     0.119698     0.143459    Uiso  ? H
   H187       1.0     0.060574     0.946537     0.119715    Uiso  ? H
   H188       1.0     0.148527     0.802378     0.085580    Uiso  ? H
   H189       1.0     0.219900     0.856557     0.165338    Uiso  ? H
   H190       1.0     0.085660     0.133327     0.032720    Uiso  ? H
   H191       1.0     0.072589     0.958331     0.011574    Uiso  ? H
   H192       1.0     0.162521     0.020349     0.054693    Uiso  ? H
   N1         1.0     0.645120     0.904351     0.392528    Uiso  ? N
   N2         1.0     0.658628     0.488843     0.603960    Uiso  ? N
   N3         1.0     0.481848     0.216527     0.590430    Uiso  ? N
   N4         1.0     0.635071     0.573927     0.412573    Uiso  ? N
   N5         1.0     0.498841     0.216560     0.388615    Uiso  ? N
   N6         1.0     0.629263     0.033508     0.636825    Uiso  ? N
   N7         1.0     0.144903     0.404420     0.391656    Uiso  ? N
   N8         1.0     0.158493     0.988892     0.604090    Uiso  ? N
   N9         1.0     0.983516     0.718638     0.591239    Uiso  ? N
   N10        1.0     0.135879     0.073467     0.413435    Uiso  ? N
   N11        1.0     0.999360     0.714767     0.388643    Uiso  ? N
   N12        1.0     0.129478     0.528194     0.635618    Uiso  ? N
   N13        1.0     0.355097     0.904420     0.108344    Uiso  ? N
   N14        1.0     0.341507     0.488892     0.895910    Uiso  ? N
   N15        1.0     0.516483     0.218644     0.908765    Uiso  ? N
   N16        1.0     0.364121     0.573467     0.086565    Uiso  ? N
   N17        1.0     0.500640     0.214766     0.111357    Uiso  ? N
   N18        1.0     0.370522     0.028194     0.864382    Uiso  ? N
   N19        1.0     0.854880     0.404351     0.107471    Uiso  ? N
   N20        1.0     0.841372     0.988843     0.896040    Uiso  ? N
   N21        1.0     0.018151     0.716527     0.909569    Uiso  ? N
   N22        1.0     0.864929     0.073927     0.087427    Uiso  ? N
   N23        1.0     0.001161     0.716562     0.111386    Uiso  ? N
   N24        1.0     0.870735     0.533514     0.863172    Uiso  ? N
   N25        1.0     0.354880     0.095649     0.607471    Uiso  ? N
   N26        1.0     0.341372     0.511157     0.396040    Uiso  ? N
   N27        1.0     0.518151     0.783473     0.409569    Uiso  ? N
   N28        1.0     0.364929     0.426073     0.587426    Uiso  ? N
   N29        1.0     0.501159     0.783439     0.611385    Uiso  ? N
   N30        1.0     0.370737     0.966492     0.363174    Uiso  ? N
   N31        1.0     0.855097     0.595580     0.608344    Uiso  ? N
   N32        1.0     0.841507     0.011108     0.395910    Uiso  ? N
   N33        1.0     0.016484     0.281362     0.408761    Uiso  ? N
   N34        1.0     0.864121     0.926532     0.586564    Uiso  ? N
   N35        1.0     0.000640     0.285232     0.611357    Uiso  ? N
   N36        1.0     0.870521     0.471804     0.364382    Uiso  ? N
   N37        1.0     0.644903     0.095580     0.891655    Uiso  ? N
   N38        1.0     0.658493     0.511108     0.104090    Uiso  ? N
   N39        1.0     0.483516     0.781361     0.091239    Uiso  ? N
   N40        1.0     0.635879     0.426533     0.913435    Uiso  ? N
   N41        1.0     0.499361     0.785234     0.888643    Uiso  ? N
   N42        1.0     0.629478     0.971805     0.135618    Uiso  ? N
   N43        1.0     0.145120     0.595649     0.892528    Uiso  ? N
   N44        1.0     0.158628     0.011157     0.103960    Uiso  ? N
   N45        1.0     0.981849     0.283473     0.090431    Uiso  ? N
   N46        1.0     0.135071     0.926073     0.912573    Uiso  ? N
   N47        1.0     0.998841     0.283440     0.888615    Uiso  ? N
   N48        1.0     0.129270     0.466488     0.136833    Uiso  ? N
   O1         1.0     0.740309     0.126013     0.395214    Uiso  ? O
   O2         1.0     0.717797     0.334847     0.814299    Uiso  ? O
   O3         1.0     0.609852     0.636629     0.339188    Uiso  ? O
   O4         1.0     0.505290     0.093010     0.379047    Uiso  ? O
   O5         1.0     0.602644     0.952907     0.650464    Uiso  ? O
   O6         1.0     0.676829     0.628096     0.483513    Uiso  ? O
   O7         1.0     0.617673     0.459338     0.413943    Uiso  ? O
   O8         1.0     0.498842     0.306472     0.344232    Uiso  ? O
   O9         1.0     0.599334     0.104380     0.566101    Uiso  ? O
   O10        1.0     0.473671     0.308549     0.624444    Uiso  ? O
   O11        1.0     0.681951     0.043362     0.689923    Uiso  ? O
   O12        1.0     0.531654     0.176544     0.623573    Uiso  ? O
   O13        1.0     0.440167     0.157765     0.519713    Uiso  ? O
   O14        1.0     0.492244     0.244174     0.445967    Uiso  ? O
   O15        1.0     0.241032     0.625973     0.396570    Uiso  ? O
   O16        1.0     0.218207     0.836413     0.815138    Uiso  ? O
   O17        1.0     0.110917     0.135885     0.340073    Uiso  ? O
   O18        1.0     0.177004     0.128573     0.484685    Uiso  ? O
   O19        1.0     0.990295     0.595281     0.614630    Uiso  ? O
   O20        1.0     0.118834     0.958222     0.414590    Uiso  ? O
   O21        1.0     0.097175     0.600911     0.641579    Uiso  ? O
   O22        1.0     0.998093     0.807012     0.344392    Uiso  ? O
   O23        1.0     0.953761     0.660163     0.366020    Uiso  ? O
   O24        1.0     0.972996     0.805879     0.624878    Uiso  ? O
   O25        1.0     0.987374     0.747687     0.531206    Uiso  ? O
   O26        1.0     0.181986     0.542630     0.687636    Uiso  ? O
   O27        1.0     0.105395     0.440502     0.573776    Uiso  ? O
   O28        1.0     0.046149     0.670536     0.459102    Uiso  ? O
   O29        1.0     0.258968     0.125973     0.103430    Uiso  ? O
   O30        1.0     0.281793     0.336413     0.684861    Uiso  ? O
   O31        1.0     0.389084     0.635885     0.159928    Uiso  ? O
   O32        1.0     0.322995     0.628573     0.015315    Uiso  ? O
   O33        1.0     0.509705     0.095287     0.885374    Uiso  ? O
   O34        1.0     0.381165     0.458222     0.085410    Uiso  ? O
   O35        1.0     0.402825     0.100912     0.858422    Uiso  ? O
   O36        1.0     0.501907     0.307012     0.155609    Uiso  ? O
   O37        1.0     0.546239     0.160162     0.133980    Uiso  ? O
   O38        1.0     0.527004     0.305886     0.875128    Uiso  ? O
   O39        1.0     0.512626     0.247691     0.968799    Uiso  ? O
   O40        1.0     0.318014     0.042630     0.812363    Uiso  ? O
   O41        1.0     0.394605     0.940503     0.926224    Uiso  ? O
   O42        1.0     0.453850     0.170535     0.040899    Uiso  ? O
   O43        1.0     0.759692     0.626018     0.104788    Uiso  ? O
   O44        1.0     0.782203     0.834847     0.685701    Uiso  ? O
   O45        1.0     0.890148     0.136630     0.160812    Uiso  ? O
   O46        1.0     0.994708     0.593013     0.120952    Uiso  ? O
   O47        1.0     0.897353     0.452919     0.849528    Uiso  ? O
   O48        1.0     0.823170     0.128094     0.016488    Uiso  ? O
   O49        1.0     0.882327     0.959339     0.086057    Uiso  ? O
   O50        1.0     0.001165     0.806477     0.155773    Uiso  ? O
   O51        1.0     0.900665     0.604382     0.933898    Uiso  ? O
   O52        1.0     0.026329     0.808551     0.875557    Uiso  ? O
   O53        1.0     0.818047     0.543368     0.810077    Uiso  ? O
   O54        1.0     0.968345     0.676544     0.876426    Uiso  ? O
   O55        1.0     0.059833     0.657764     0.980286    Uiso  ? O
   O56        1.0     0.007757     0.744171     0.054032    Uiso  ? O
   O57        1.0     0.259692     0.873982     0.604787    Uiso  ? O
   O58        1.0     0.282203     0.665153     0.185701    Uiso  ? O
   O59        1.0     0.390147     0.363370     0.660812    Uiso  ? O
   O60        1.0     0.494710     0.906990     0.620952    Uiso  ? O
   O61        1.0     0.397356     0.047093     0.349535    Uiso  ? O
   O62        1.0     0.323170     0.371905     0.516487    Uiso  ? O
   O63        1.0     0.382327     0.540661     0.586056    Uiso  ? O
   O64        1.0     0.501157     0.693528     0.655768    Uiso  ? O
   O65        1.0     0.400666     0.895620     0.433898    Uiso  ? O
   O66        1.0     0.526329     0.691450     0.375555    Uiso  ? O
   O67        1.0     0.318049     0.956638     0.310076    Uiso  ? O
   O68        1.0     0.468345     0.823455     0.376427    Uiso  ? O
   O69        1.0     0.559833     0.842235     0.480286    Uiso  ? O
   O70        1.0     0.507756     0.755825     0.554033    Uiso  ? O
   O71        1.0     0.758968     0.374027     0.603430    Uiso  ? O
   O72        1.0     0.781796     0.163592     0.184863    Uiso  ? O
   O73        1.0     0.889083     0.864114     0.659927    Uiso  ? O
   O74        1.0     0.822995     0.871427     0.515314    Uiso  ? O
   O75        1.0     0.009705     0.404719     0.385370    Uiso  ? O
   O76        1.0     0.881166     0.041777     0.585410    Uiso  ? O
   O77        1.0     0.902825     0.399085     0.358422    Uiso  ? O
   O78        1.0     0.001907     0.192987     0.655609    Uiso  ? O
   O79        1.0     0.046239     0.339835     0.633980    Uiso  ? O
   O80        1.0     0.027004     0.194122     0.375121    Uiso  ? O
   O81        1.0     0.012626     0.252312     0.468794    Uiso  ? O
   O82        1.0     0.818014     0.457370     0.312364    Uiso  ? O
   O83        1.0     0.894606     0.559496     0.426224    Uiso  ? O
   O84        1.0     0.953851     0.329463     0.540899    Uiso  ? O
   O85        1.0     0.741031     0.874027     0.896570    Uiso  ? O
   O86        1.0     0.718204     0.663592     0.315137    Uiso  ? O
   O87        1.0     0.610916     0.364113     0.840072    Uiso  ? O
   O88        1.0     0.677005     0.371426     0.984685    Uiso  ? O
   O89        1.0     0.490295     0.904718     0.114631    Uiso  ? O
   O90        1.0     0.618834     0.541778     0.914589    Uiso  ? O
   O91        1.0     0.597175     0.899085     0.141578    Uiso  ? O
   O92        1.0     0.498094     0.692989     0.844392    Uiso  ? O
   O93        1.0     0.453761     0.839836     0.866020    Uiso  ? O
   O94        1.0     0.472995     0.694120     0.124878    Uiso  ? O
   O95        1.0     0.487374     0.752313     0.031206    Uiso  ? O
   O96        1.0     0.681986     0.957369     0.187637    Uiso  ? O
   O97        1.0     0.605395     0.059497     0.073776    Uiso  ? O
   O98        1.0     0.546149     0.829466     0.959102    Uiso  ? O
   O99        1.0     0.240307     0.373982     0.895212    Uiso  ? O
   O100       1.0     0.217797     0.165153     0.314299    Uiso  ? O
   O101       1.0     0.109852     0.863369     0.839187    Uiso  ? O
   O102       1.0     0.005290     0.406990     0.879049    Uiso  ? O
   O103       1.0     0.102651     0.547082     0.150476    Uiso  ? O
   O104       1.0     0.176830     0.871905     0.983512    Uiso  ? O
   O105       1.0     0.117673     0.040661     0.913943    Uiso  ? O
   O106       1.0     0.998843     0.193528     0.844233    Uiso  ? O
   O107       1.0     0.099342     0.395616     0.066109    Uiso  ? O
   O108       1.0     0.973671     0.191450     0.124443    Uiso  ? O
   O109       1.0     0.181957     0.456639     0.189930    Uiso  ? O
   O110       1.0     0.031655     0.323454     0.123574    Uiso  ? O
   O111       1.0     0.940167     0.342236     0.019713    Uiso  ? O
   O112       1.0     0.992243     0.255824     0.945967    Uiso  ? O
   K1         1.0     0.499172     0.504903     0.249559    Uiso  ? K
   K2         1.0     0.000827     0.004908     0.250438    Uiso  ? K
   K3         1.0     0.500826     0.495091     0.750438    Uiso  ? K
   K4         1.0     0.999174     0.995091     0.749562    Uiso  ? K
   Nd1        1.0     0.500000     0.999999     0.500000    Uiso  ? Nd
   Nd2        1.0     1.000000     0.499999     0.500000    Uiso  ? Nd
   Nd3        1.0     0.500000     1.000000     0.000001    Uiso  ? Nd
   Nd4        1.0     0.000000     0.499999     0.000000    Uiso  ? Nd
