data_OQ_DyCs
_audit_creation_date              2025-06-24
_audit_creation_method            'Materials Studio'
_symmetry_space_group_name_H-M    'P1'
_symmetry_Int_Tables_number       1
_symmetry_cell_setting            triclinic
loop_
_symmetry_equiv_pos_as_xyz
  x,y,z
_cell_length_a                    19.9866
_cell_length_b                    20.0853
_cell_length_c                    24.6907
_cell_angle_alpha                 67.5142
_cell_angle_beta                  88.4961
_cell_angle_gamma                 89.2524
loop_
_atom_site_label
_atom_site_type_symbol
_atom_site_fract_x
_atom_site_fract_y
_atom_site_fract_z
_atom_site_U_iso_or_equiv
_atom_site_adp_type
_atom_site_occupancy
Dy1    Dy    0.02345   0.23840   0.25239   0.00000  Uiso   1.00
Dy2    Dy    0.02346   0.73845   0.25237   0.00000  Uiso   1.00
Dy3    Dy    0.52329   0.23845   0.25224   0.00000  Uiso   1.00
Dy4    Dy    0.52315   0.73849   0.25231   0.00000  Uiso   1.00
Cs5    Cs    0.27398   0.48987   0.25196   0.00000  Uiso   1.00
Cs6    Cs    0.27397   0.98965   0.25190   0.00000  Uiso   1.00
Cs7    Cs    0.77375   0.48977   0.25196   0.00000  Uiso   1.00
Cs8    Cs    0.77381   0.98966   0.25192   0.00000  Uiso   1.00
O9     O     0.16976   0.10092   0.22707   0.00000  Uiso   1.00
O10    O     0.40336   0.19057   0.26377   0.00000  Uiso   1.00
O11    O     0.05039   0.33167   0.15097   0.00000  Uiso   1.00
O12    O     0.47255   0.25466   0.15404   0.00000  Uiso   1.00
O13    O     0.44880   0.28614   0.31357   0.00000  Uiso   1.00
O14    O     0.07286   0.22357   0.35094   0.00000  Uiso   1.00
O15    O     0.35424   0.32764   0.42563   0.00000  Uiso   1.00
O16    O     0.37858   0.08112   0.27014   0.00000  Uiso   1.00
O17    O     0.10698   0.13686   0.28544   0.00000  Uiso   1.00
O18    O     0.33326   0.44336   0.38222   0.00000  Uiso   1.00
O19    O     0.20487   0.03949   0.12752   0.00000  Uiso   1.00
O20    O     0.43667   0.34028   0.21944   0.00000  Uiso   1.00
O21    O     0.25964   0.36365   0.37996   0.00000  Uiso   1.00
O22    O     0.09735   0.18951   0.19088   0.00000  Uiso   1.00
O23    O     0.00509   0.33748   0.06874   0.00000  Uiso   1.00
O24    O     0.17579   0.38027   0.25241   0.00000  Uiso   1.00
O25    O     0.28595   0.11497   0.12340   0.00000  Uiso   1.00
O26    O     0.03569   0.14767   0.43713   0.00000  Uiso   1.00
O27    O     0.48188   0.12107   0.25178   0.00000  Uiso   1.00
O28    O     0.06841   0.35565   0.25431   0.00000  Uiso   1.00
O29    O     0.49589   0.14571   0.35531   0.00000  Uiso   1.00
O30    O     0.37041   0.36870   0.28023   0.00000  Uiso   1.00
O31    O     0.19167   0.15570   0.07846   0.00000  Uiso   1.00
O32    O     0.14248   0.28173   0.24241   0.00000  Uiso   1.00
O33    O     0.11649   0.28957   0.46844   0.00000  Uiso   1.00
O34    O     0.17074   0.43135   0.04189   0.00000  Uiso   1.00
O35    O     0.92964   0.18885   0.03160   0.00000  Uiso   1.00
O36    O     0.17144   0.06396   0.47540   0.00000  Uiso   1.00
O37    O     0.16976   0.60088   0.22691   0.00000  Uiso   1.00
O38    O     0.40319   0.69055   0.26412   0.00000  Uiso   1.00
O39    O     0.04996   0.83137   0.15123   0.00000  Uiso   1.00
O40    O     0.47251   0.75463   0.15413   0.00000  Uiso   1.00
O41    O     0.44888   0.78624   0.31358   0.00000  Uiso   1.00
O42    O     0.07319   0.72347   0.35137   0.00000  Uiso   1.00
O43    O     0.35421   0.82785   0.42564   0.00000  Uiso   1.00
O44    O     0.37820   0.58114   0.27059   0.00000  Uiso   1.00
O45    O     0.10702   0.63680   0.28533   0.00000  Uiso   1.00
O46    O     0.33323   0.94357   0.38223   0.00000  Uiso   1.00
O47    O     0.20508   0.53903   0.12730   0.00000  Uiso   1.00
O48    O     0.43663   0.84020   0.21945   0.00000  Uiso   1.00
O49    O     0.25930   0.86389   0.38043   0.00000  Uiso   1.00
O50    O     0.09708   0.68920   0.19080   0.00000  Uiso   1.00
O51    O     0.00467   0.83716   0.06899   0.00000  Uiso   1.00
O52    O     0.17579   0.88003   0.25252   0.00000  Uiso   1.00
O53    O     0.28556   0.61504   0.12333   0.00000  Uiso   1.00
O54    O     0.03604   0.64726   0.43744   0.00000  Uiso   1.00
O55    O     0.48151   0.62105   0.25182   0.00000  Uiso   1.00
O56    O     0.06842   0.85541   0.25443   0.00000  Uiso   1.00
O57    O     0.49571   0.64563   0.35542   0.00000  Uiso   1.00
O58    O     0.37031   0.86858   0.28023   0.00000  Uiso   1.00
O59    O     0.19169   0.65496   0.07733   0.00000  Uiso   1.00
O60    O     0.14247   0.78161   0.24234   0.00000  Uiso   1.00
O61    O     0.11668   0.78913   0.46782   0.00000  Uiso   1.00
O62    O     0.16522   0.92443   0.04990   0.00000  Uiso   1.00
O63    O     0.92971   0.68884   0.03163   0.00000  Uiso   1.00
O64    O     0.66979   0.10091   0.22710   0.00000  Uiso   1.00
O65    O     0.90346   0.19051   0.26386   0.00000  Uiso   1.00
O66    O     0.54994   0.33136   0.15118   0.00000  Uiso   1.00
O67    O     0.97282   0.25508   0.15393   0.00000  Uiso   1.00
O68    O     0.94884   0.28615   0.31356   0.00000  Uiso   1.00
O69    O     0.57282   0.22354   0.35093   0.00000  Uiso   1.00
O70    O     0.85442   0.32774   0.42546   0.00000  Uiso   1.00
O71    O     0.87867   0.08109   0.27014   0.00000  Uiso   1.00
O72    O     0.60702   0.13678   0.28553   0.00000  Uiso   1.00
O73    O     0.83306   0.44344   0.38254   0.00000  Uiso   1.00
O74    O     0.70519   0.03886   0.12785   0.00000  Uiso   1.00
O75    O     0.93683   0.34031   0.21942   0.00000  Uiso   1.00
O76    O     0.75967   0.36364   0.38003   0.00000  Uiso   1.00
O77    O     0.59707   0.18918   0.19100   0.00000  Uiso   1.00
O78    O     0.50456   0.33738   0.06891   0.00000  Uiso   1.00
O79    O     0.67576   0.38006   0.25255   0.00000  Uiso   1.00
O80    O     0.78574   0.11500   0.12350   0.00000  Uiso   1.00
O81    O     0.53573   0.14769   0.43716   0.00000  Uiso   1.00
O82    O     0.98194   0.12114   0.25162   0.00000  Uiso   1.00
O83    O     0.56838   0.35556   0.25429   0.00000  Uiso   1.00
O84    O     0.99598   0.14574   0.35523   0.00000  Uiso   1.00
O85    O     0.87052   0.36878   0.28016   0.00000  Uiso   1.00
O86    O     0.69153   0.15479   0.07806   0.00000  Uiso   1.00
O87    O     0.64243   0.28167   0.24233   0.00000  Uiso   1.00
O88    O     0.61653   0.28943   0.46838   0.00000  Uiso   1.00
O89    O     0.66522   0.42442   0.04990   0.00000  Uiso   1.00
O90    O     0.42955   0.18888   0.03166   0.00000  Uiso   1.00
O91    O     0.67150   0.06391   0.47545   0.00000  Uiso   1.00
O92    O     0.66978   0.60095   0.22710   0.00000  Uiso   1.00
O93    O     0.90352   0.69035   0.26407   0.00000  Uiso   1.00
O94    O     0.54992   0.83133   0.15122   0.00000  Uiso   1.00
O95    O     0.97266   0.75455   0.15418   0.00000  Uiso   1.00
O96    O     0.94894   0.78611   0.31364   0.00000  Uiso   1.00
O97    O     0.57274   0.72343   0.35088   0.00000  Uiso   1.00
O98    O     0.85440   0.82771   0.42549   0.00000  Uiso   1.00
O99    O     0.87862   0.58108   0.27004   0.00000  Uiso   1.00
O100   O     0.60688   0.63668   0.28554   0.00000  Uiso   1.00
O101   O     0.83302   0.94341   0.38253   0.00000  Uiso   1.00
O102   O     0.70518   0.53884   0.12786   0.00000  Uiso   1.00
O103   O     0.93673   0.84019   0.21951   0.00000  Uiso   1.00
O104   O     0.75966   0.86359   0.38004   0.00000  Uiso   1.00
O105   O     0.59696   0.68912   0.19100   0.00000  Uiso   1.00
O106   O     0.50456   0.83726   0.06897   0.00000  Uiso   1.00
O107   O     0.67584   0.87994   0.25255   0.00000  Uiso   1.00
O108   O     0.78586   0.61488   0.12339   0.00000  Uiso   1.00
O109   O     0.53575   0.64765   0.43718   0.00000  Uiso   1.00
O110   O     0.98196   0.62097   0.25177   0.00000  Uiso   1.00
O111   O     0.56843   0.85557   0.25428   0.00000  Uiso   1.00
O112   O     0.99633   0.64571   0.35541   0.00000  Uiso   1.00
O113   O     0.87049   0.86861   0.28031   0.00000  Uiso   1.00
O114   O     0.69160   0.65478   0.07809   0.00000  Uiso   1.00
O115   O     0.64240   0.78156   0.24237   0.00000  Uiso   1.00
O116   O     0.61651   0.78940   0.46838   0.00000  Uiso   1.00
O117   O     0.66521   0.92442   0.04992   0.00000  Uiso   1.00
O118   O     0.42959   0.68888   0.03172   0.00000  Uiso   1.00
O119   O     0.67150   0.56391   0.47545   0.00000  Uiso   1.00
N120   N     0.41751   0.33272   0.27117   0.00000  Uiso   1.00
N121   N     0.42013   0.12992   0.26193   0.00000  Uiso   1.00
N122   N     0.03497   0.17142   0.38279   0.00000  Uiso   1.00
N123   N     0.12992   0.34045   0.24961   0.00000  Uiso   1.00
N124   N     0.12583   0.14143   0.23433   0.00000  Uiso   1.00
N125   N     0.31558   0.37842   0.39604   0.00000  Uiso   1.00
N126   N     0.00935   0.30885   0.12302   0.00000  Uiso   1.00
N127   N     0.22757   0.10317   0.10956   0.00000  Uiso   1.00
N128   N     0.97960   0.40894   0.40061   0.00000  Uiso   1.00
N129   N     0.26591   0.26801   0.10632   0.00000  Uiso   1.00
N130   N     0.06292   0.06908   0.10700   0.00000  Uiso   1.00
N131   N     0.27655   0.21645   0.39947   0.00000  Uiso   1.00
N132   N     0.41746   0.83269   0.27120   0.00000  Uiso   1.00
N133   N     0.41984   0.62993   0.26222   0.00000  Uiso   1.00
N134   N     0.03532   0.67127   0.38307   0.00000  Uiso   1.00
N135   N     0.12994   0.84026   0.24965   0.00000  Uiso   1.00
N136   N     0.12575   0.64130   0.23424   0.00000  Uiso   1.00
N137   N     0.31543   0.87854   0.39620   0.00000  Uiso   1.00
N138   N     0.00906   0.80853   0.12324   0.00000  Uiso   1.00
N139   N     0.22750   0.60283   0.10906   0.00000  Uiso   1.00
N140   N     0.97956   0.90870   0.40065   0.00000  Uiso   1.00
N141   N     0.26758   0.76588   0.10724   0.00000  Uiso   1.00
N142   N     0.06348   0.56938   0.10653   0.00000  Uiso   1.00
N143   N     0.27561   0.71537   0.40053   0.00000  Uiso   1.00
N144   N     0.91760   0.33277   0.27114   0.00000  Uiso   1.00
N145   N     0.92022   0.12991   0.26191   0.00000  Uiso   1.00
N146   N     0.53494   0.17142   0.38280   0.00000  Uiso   1.00
N147   N     0.62988   0.34033   0.24961   0.00000  Uiso   1.00
N148   N     0.62575   0.14129   0.23443   0.00000  Uiso   1.00
N149   N     0.81559   0.37844   0.39612   0.00000  Uiso   1.00
N150   N     0.50897   0.30863   0.12316   0.00000  Uiso   1.00
N151   N     0.72747   0.10268   0.10954   0.00000  Uiso   1.00
N152   N     0.47952   0.40874   0.40063   0.00000  Uiso   1.00
N153   N     0.76753   0.26584   0.10722   0.00000  Uiso   1.00
N154   N     0.56285   0.06912   0.10699   0.00000  Uiso   1.00
N155   N     0.77652   0.21644   0.39946   0.00000  Uiso   1.00
N156   N     0.91760   0.83265   0.27124   0.00000  Uiso   1.00
N157   N     0.92024   0.62981   0.26199   0.00000  Uiso   1.00
N158   N     0.53484   0.67134   0.38283   0.00000  Uiso   1.00
N159   N     0.62991   0.84026   0.24962   0.00000  Uiso   1.00
N160   N     0.62566   0.64126   0.23444   0.00000  Uiso   1.00
N161   N     0.81556   0.87841   0.39613   0.00000  Uiso   1.00
N162   N     0.50895   0.80857   0.12322   0.00000  Uiso   1.00
N163   N     0.72754   0.60264   0.10951   0.00000  Uiso   1.00
N164   N     0.47950   0.90872   0.40064   0.00000  Uiso   1.00
N165   N     0.76754   0.76585   0.10723   0.00000  Uiso   1.00
N166   N     0.56288   0.56911   0.10700   0.00000  Uiso   1.00
N167   N     0.77650   0.71645   0.39943   0.00000  Uiso   1.00
H168   H     0.92799   0.40481   0.39814   0.00000  Uiso   1.00
H169   H     0.98265   0.31274   0.47826   0.00000  Uiso   1.00
H170   H     0.99612   0.30017   0.41132   0.00000  Uiso   1.00
H171   H     0.00278   0.39637   0.32175   0.00000  Uiso   1.00
H172   H     0.98396   0.48684   0.31416   0.00000  Uiso   1.00
H173   H     0.11532   0.42578   0.31902   0.00000  Uiso   1.00
H174   H     0.09672   0.50796   0.32769   0.00000  Uiso   1.00
H175   H     0.16061   0.42054   0.41419   0.00000  Uiso   1.00
H176   H     0.96231   0.44176   0.47108   0.00000  Uiso   1.00
H177   H     0.97500   0.51346   0.40122   0.00000  Uiso   1.00
H178   H     0.07724   0.43469   0.48950   0.00000  Uiso   1.00
H179   H     0.08764   0.51514   0.42713   0.00000  Uiso   1.00
H180   H     0.26140   0.21340   0.11387   0.00000  Uiso   1.00
H181   H     0.25442   0.37303   0.17607   0.00000  Uiso   1.00
H182   H     0.34145   0.36946   0.16123   0.00000  Uiso   1.00
H183   H     0.18188   0.29303   0.05010   0.00000  Uiso   1.00
H184   H     0.16378   0.28773   0.12271   0.00000  Uiso   1.00
H185   H     0.38338   0.38179   0.06257   0.00000  Uiso   1.00
H186   H     0.33076   0.41074   0.00100   0.00000  Uiso   1.00
H187   H     0.24775   0.25055   0.19499   0.00000  Uiso   1.00
H188   H     0.33408   0.24834   0.17479   0.00000  Uiso   1.00
H189   H     0.29846   0.29182   0.01953   0.00000  Uiso   1.00
H190   H     0.36295   0.26329   0.07141   0.00000  Uiso   1.00
H191   H     0.28521   0.46088   0.07360   0.00000  Uiso   1.00
H192   H     0.11397   0.07170   0.11402   0.00000  Uiso   1.00
H193   H     0.06583   0.17040   0.03481   0.00000  Uiso   1.00
H194   H     0.03854   0.17460   0.10282   0.00000  Uiso   1.00
H195   H     0.92888   0.98043   0.17572   0.00000  Uiso   1.00
H196   H     0.92493   0.07106   0.17070   0.00000  Uiso   1.00
H197   H     0.04558   0.97647   0.18297   0.00000  Uiso   1.00
H198   H     0.03848   0.05943   0.19363   0.00000  Uiso   1.00
H199   H     0.08529   0.97545   0.09075   0.00000  Uiso   1.00
H200   H     0.08230   0.05624   0.02778   0.00000  Uiso   1.00
H201   H     0.97023   0.95529   0.08826   0.00000  Uiso   1.00
H202   H     0.97253   0.02452   0.01687   0.00000  Uiso   1.00
H203   H     0.88562   0.05727   0.07791   0.00000  Uiso   1.00
H204   H     0.28022   0.26966   0.39670   0.00000  Uiso   1.00
H205   H     0.22108   0.18748   0.48076   0.00000  Uiso   1.00
H206   H     0.17168   0.21117   0.41723   0.00000  Uiso   1.00
H207   H     0.38148   0.20580   0.39685   0.00000  Uiso   1.00
H208   H     0.34473   0.17527   0.46824   0.00000  Uiso   1.00
H209   H     0.34594   0.05788   0.46764   0.00000  Uiso   1.00
H210   H     0.37177   0.09149   0.39296   0.00000  Uiso   1.00
H211   H     0.29077   0.12965   0.31321   0.00000  Uiso   1.00
H212   H     0.20367   0.13556   0.32779   0.00000  Uiso   1.00
H213   H     0.25759   0.03135   0.40873   0.00000  Uiso   1.00
H214   H     0.30673   0.24582   0.31113   0.00000  Uiso   1.00
H215   H     0.21934   0.25225   0.32369   0.00000  Uiso   1.00
H216   H     0.92797   0.90452   0.39817   0.00000  Uiso   1.00
H217   H     0.98281   0.81262   0.47832   0.00000  Uiso   1.00
H218   H     0.99599   0.79992   0.41137   0.00000  Uiso   1.00
H219   H     0.00279   0.89633   0.32171   0.00000  Uiso   1.00
H220   H     0.98393   0.98675   0.31425   0.00000  Uiso   1.00
H221   H     0.11530   0.92573   0.31901   0.00000  Uiso   1.00
H222   H     0.09669   0.00785   0.32778   0.00000  Uiso   1.00
H223   H     0.16058   0.92036   0.41422   0.00000  Uiso   1.00
H224   H     0.96223   0.94136   0.47123   0.00000  Uiso   1.00
H225   H     0.97492   0.01311   0.40141   0.00000  Uiso   1.00
H226   H     0.07733   0.93470   0.48957   0.00000  Uiso   1.00
H227   H     0.08717   0.01482   0.42692   0.00000  Uiso   1.00
H228   H     0.26475   0.71097   0.11512   0.00000  Uiso   1.00
H229   H     0.25465   0.87191   0.17667   0.00000  Uiso   1.00
H230   H     0.34155   0.86975   0.16061   0.00000  Uiso   1.00
H231   H     0.18339   0.78953   0.05116   0.00000  Uiso   1.00
H232   H     0.16473   0.78181   0.12430   0.00000  Uiso   1.00
H233   H     0.38221   0.88240   0.06257   0.00000  Uiso   1.00
H234   H     0.32959   0.91018   0.00108   0.00000  Uiso   1.00
H235   H     0.24873   0.74951   0.19554   0.00000  Uiso   1.00
H236   H     0.33532   0.74803   0.17584   0.00000  Uiso   1.00
H237   H     0.29871   0.79079   0.02002   0.00000  Uiso   1.00
H238   H     0.36431   0.76373   0.07087   0.00000  Uiso   1.00
H239   H     0.28231   0.95960   0.07374   0.00000  Uiso   1.00
H240   H     0.11441   0.57222   0.11379   0.00000  Uiso   1.00
H241   H     0.06597   0.67100   0.03455   0.00000  Uiso   1.00
H242   H     0.03866   0.67458   0.10279   0.00000  Uiso   1.00
H243   H     0.92931   0.48037   0.17535   0.00000  Uiso   1.00
H244   H     0.92534   0.57100   0.17025   0.00000  Uiso   1.00
H245   H     0.04605   0.47648   0.18252   0.00000  Uiso   1.00
H246   H     0.03886   0.55941   0.19320   0.00000  Uiso   1.00
H247   H     0.08618   0.47574   0.09039   0.00000  Uiso   1.00
H248   H     0.08376   0.55661   0.02699   0.00000  Uiso   1.00
H249   H     0.97150   0.45558   0.08755   0.00000  Uiso   1.00
H250   H     0.97338   0.52496   0.01623   0.00000  Uiso   1.00
H251   H     0.88633   0.55693   0.07740   0.00000  Uiso   1.00
H252   H     0.27801   0.76814   0.39874   0.00000  Uiso   1.00
H253   H     0.21708   0.68187   0.48158   0.00000  Uiso   1.00
H254   H     0.16983   0.70433   0.41866   0.00000  Uiso   1.00
H255   H     0.38058   0.70430   0.39641   0.00000  Uiso   1.00
H256   H     0.34517   0.67584   0.46820   0.00000  Uiso   1.00
H257   H     0.34374   0.55746   0.46968   0.00000  Uiso   1.00
H258   H     0.36818   0.58896   0.39472   0.00000  Uiso   1.00
H259   H     0.28934   0.62700   0.31643   0.00000  Uiso   1.00
H260   H     0.20195   0.63560   0.32852   0.00000  Uiso   1.00
H261   H     0.25777   0.53036   0.40857   0.00000  Uiso   1.00
H262   H     0.30600   0.74444   0.31199   0.00000  Uiso   1.00
H263   H     0.21883   0.75225   0.32453   0.00000  Uiso   1.00
H264   H     0.42792   0.40462   0.39812   0.00000  Uiso   1.00
H265   H     0.48265   0.31260   0.47829   0.00000  Uiso   1.00
H266   H     0.49610   0.29998   0.41135   0.00000  Uiso   1.00
H267   H     0.50276   0.39634   0.32170   0.00000  Uiso   1.00
H268   H     0.48392   0.48678   0.31422   0.00000  Uiso   1.00
H269   H     0.61527   0.42571   0.31902   0.00000  Uiso   1.00
H270   H     0.59666   0.50787   0.32773   0.00000  Uiso   1.00
H271   H     0.66052   0.42044   0.41425   0.00000  Uiso   1.00
H272   H     0.46221   0.44141   0.47121   0.00000  Uiso   1.00
H273   H     0.47482   0.51319   0.40139   0.00000  Uiso   1.00
H274   H     0.57728   0.43485   0.48952   0.00000  Uiso   1.00
H275   H     0.58709   0.51497   0.42685   0.00000  Uiso   1.00
H276   H     0.76470   0.21091   0.11509   0.00000  Uiso   1.00
H277   H     0.75463   0.37187   0.17666   0.00000  Uiso   1.00
H278   H     0.84153   0.36969   0.16061   0.00000  Uiso   1.00
H279   H     0.68332   0.28951   0.05115   0.00000  Uiso   1.00
H280   H     0.66468   0.28176   0.12428   0.00000  Uiso   1.00
H281   H     0.88220   0.38235   0.06258   0.00000  Uiso   1.00
H282   H     0.82959   0.41016   0.00109   0.00000  Uiso   1.00
H283   H     0.74866   0.24948   0.19550   0.00000  Uiso   1.00
H284   H     0.83526   0.24796   0.17583   0.00000  Uiso   1.00
H285   H     0.79866   0.29078   0.02001   0.00000  Uiso   1.00
H286   H     0.86426   0.26367   0.07085   0.00000  Uiso   1.00
H287   H     0.78228   0.45956   0.07374   0.00000  Uiso   1.00
H288   H     0.61386   0.07183   0.11398   0.00000  Uiso   1.00
H289   H     0.56576   0.17042   0.03479   0.00000  Uiso   1.00
H290   H     0.53848   0.17464   0.10281   0.00000  Uiso   1.00
H291   H     0.42887   0.98043   0.17572   0.00000  Uiso   1.00
H292   H     0.42490   0.07107   0.17070   0.00000  Uiso   1.00
H293   H     0.54556   0.97649   0.18296   0.00000  Uiso   1.00
H294   H     0.53844   0.05946   0.19362   0.00000  Uiso   1.00
H295   H     0.58527   0.97548   0.09076   0.00000  Uiso   1.00
H296   H     0.58227   0.05627   0.02778   0.00000  Uiso   1.00
H297   H     0.47021   0.95531   0.08825   0.00000  Uiso   1.00
H298   H     0.47251   0.02455   0.01686   0.00000  Uiso   1.00
H299   H     0.38559   0.05726   0.07792   0.00000  Uiso   1.00
H300   H     0.78019   0.26965   0.39669   0.00000  Uiso   1.00
H301   H     0.72104   0.18747   0.48074   0.00000  Uiso   1.00
H302   H     0.67163   0.21115   0.41722   0.00000  Uiso   1.00
H303   H     0.88145   0.20580   0.39685   0.00000  Uiso   1.00
H304   H     0.84469   0.17526   0.46823   0.00000  Uiso   1.00
H305   H     0.84592   0.05789   0.46763   0.00000  Uiso   1.00
H306   H     0.87176   0.09150   0.39295   0.00000  Uiso   1.00
H307   H     0.79075   0.12966   0.31319   0.00000  Uiso   1.00
H308   H     0.70365   0.13555   0.32778   0.00000  Uiso   1.00
H309   H     0.75756   0.03136   0.40873   0.00000  Uiso   1.00
H310   H     0.80671   0.24583   0.31112   0.00000  Uiso   1.00
H311   H     0.71931   0.25225   0.32366   0.00000  Uiso   1.00
H312   H     0.42788   0.90458   0.39814   0.00000  Uiso   1.00
H313   H     0.48264   0.81260   0.47830   0.00000  Uiso   1.00
H314   H     0.49604   0.79995   0.41137   0.00000  Uiso   1.00
H315   H     0.50275   0.89633   0.32171   0.00000  Uiso   1.00
H316   H     0.48391   0.98676   0.31423   0.00000  Uiso   1.00
H317   H     0.61526   0.92569   0.31903   0.00000  Uiso   1.00
H318   H     0.59666   0.00785   0.32774   0.00000  Uiso   1.00
H319   H     0.66051   0.92040   0.41426   0.00000  Uiso   1.00
H320   H     0.46219   0.94139   0.47122   0.00000  Uiso   1.00
H321   H     0.47485   0.01315   0.40139   0.00000  Uiso   1.00
H322   H     0.57728   0.93481   0.48954   0.00000  Uiso   1.00
H323   H     0.58709   0.01494   0.42687   0.00000  Uiso   1.00
H324   H     0.76468   0.71094   0.11509   0.00000  Uiso   1.00
H325   H     0.75464   0.87188   0.17667   0.00000  Uiso   1.00
H326   H     0.84153   0.86971   0.16061   0.00000  Uiso   1.00
H327   H     0.68332   0.78952   0.05116   0.00000  Uiso   1.00
H328   H     0.66468   0.78177   0.12429   0.00000  Uiso   1.00
H329   H     0.88219   0.88238   0.06257   0.00000  Uiso   1.00
H330   H     0.82957   0.91017   0.00109   0.00000  Uiso   1.00
H331   H     0.74868   0.74949   0.19551   0.00000  Uiso   1.00
H332   H     0.83528   0.74798   0.17583   0.00000  Uiso   1.00
H333   H     0.79867   0.79078   0.02003   0.00000  Uiso   1.00
H334   H     0.86428   0.76370   0.07088   0.00000  Uiso   1.00
H335   H     0.78229   0.95957   0.07375   0.00000  Uiso   1.00
H336   H     0.61389   0.57181   0.11399   0.00000  Uiso   1.00
H337   H     0.56579   0.67041   0.03479   0.00000  Uiso   1.00
H338   H     0.53852   0.67463   0.10282   0.00000  Uiso   1.00
H339   H     0.42889   0.48043   0.17574   0.00000  Uiso   1.00
H340   H     0.42494   0.57107   0.17072   0.00000  Uiso   1.00
H341   H     0.54558   0.47650   0.18297   0.00000  Uiso   1.00
H342   H     0.53846   0.55947   0.19362   0.00000  Uiso   1.00
H343   H     0.58529   0.47549   0.09075   0.00000  Uiso   1.00
H344   H     0.58228   0.55628   0.02778   0.00000  Uiso   1.00
H345   H     0.47024   0.45531   0.08827   0.00000  Uiso   1.00
H346   H     0.47251   0.52455   0.01687   0.00000  Uiso   1.00
H347   H     0.38563   0.55728   0.07789   0.00000  Uiso   1.00
H348   H     0.78016   0.76967   0.39666   0.00000  Uiso   1.00
H349   H     0.72103   0.68749   0.48072   0.00000  Uiso   1.00
H350   H     0.67162   0.71116   0.41720   0.00000  Uiso   1.00
H351   H     0.88144   0.70581   0.39683   0.00000  Uiso   1.00
H352   H     0.84466   0.67528   0.46821   0.00000  Uiso   1.00
H353   H     0.84590   0.55789   0.46762   0.00000  Uiso   1.00
H354   H     0.87175   0.59151   0.39293   0.00000  Uiso   1.00
H355   H     0.79073   0.62966   0.31318   0.00000  Uiso   1.00
H356   H     0.70363   0.63555   0.32777   0.00000  Uiso   1.00
H357   H     0.75754   0.53136   0.40873   0.00000  Uiso   1.00
H358   H     0.80669   0.74582   0.31110   0.00000  Uiso   1.00
H359   H     0.71930   0.75225   0.32364   0.00000  Uiso   1.00
C360   C     0.00725   0.33532   0.43477   0.00000  Uiso   1.00
C361   C     0.01094   0.43739   0.33998   0.00000  Uiso   1.00
C362   C     0.08603   0.44995   0.34499   0.00000  Uiso   1.00
C363   C     0.10633   0.41837   0.40992   0.00000  Uiso   1.00
C364   C     0.99279   0.46028   0.43055   0.00000  Uiso   1.00
C365   C     0.08236   0.34173   0.43987   0.00000  Uiso   1.00
C366   C     0.06800   0.46000   0.44248   0.00000  Uiso   1.00
C367   C     0.29162   0.35801   0.14925   0.00000  Uiso   1.00
C368   C     0.20069   0.30626   0.08617   0.00000  Uiso   1.00
C369   C     0.33284   0.37703   0.04795   0.00000  Uiso   1.00
C370   C     0.28641   0.27682   0.16152   0.00000  Uiso   1.00
C371   C     0.31857   0.29777   0.05826   0.00000  Uiso   1.00
C372   C     0.28146   0.40292   0.08357   0.00000  Uiso   1.00
C373   C     0.21280   0.38662   0.06753   0.00000  Uiso   1.00
C374   C     0.03552   0.14330   0.07490   0.00000  Uiso   1.00
C375   C     0.95042   0.03440   0.15339   0.00000  Uiso   1.00
C376   C     0.02617   0.03181   0.16462   0.00000  Uiso   1.00
C377   C     0.05702   0.02532   0.06955   0.00000  Uiso   1.00
C378   C     0.96321   0.13631   0.06022   0.00000  Uiso   1.00
C379   C     0.98263   0.01211   0.06314   0.00000  Uiso   1.00
C380   C     0.93887   0.05929   0.08684   0.00000  Uiso   1.00
C381   C     0.21740   0.18274   0.43808   0.00000  Uiso   1.00
C382   C     0.33968   0.17511   0.42418   0.00000  Uiso   1.00
C383   C     0.33486   0.09852   0.42408   0.00000  Uiso   1.00
C384   C     0.25395   0.14144   0.34206   0.00000  Uiso   1.00
C385   C     0.26438   0.08691   0.40529   0.00000  Uiso   1.00
C386   C     0.26392   0.21870   0.33898   0.00000  Uiso   1.00
C387   C     0.21351   0.10501   0.44384   0.00000  Uiso   1.00
C388   C     0.00728   0.83509   0.43476   0.00000  Uiso   1.00
C389   C     0.01092   0.93728   0.34001   0.00000  Uiso   1.00
C390   C     0.08601   0.94983   0.34503   0.00000  Uiso   1.00
C391   C     0.10630   0.91813   0.40998   0.00000  Uiso   1.00
C392   C     0.99269   0.95990   0.43069   0.00000  Uiso   1.00
C393   C     0.08245   0.84143   0.43968   0.00000  Uiso   1.00
C394   C     0.06789   0.95965   0.44254   0.00000  Uiso   1.00
C395   C     0.29167   0.85728   0.14948   0.00000  Uiso   1.00
C396   C     0.20152   0.80202   0.08780   0.00000  Uiso   1.00
C397   C     0.33183   0.87666   0.04807   0.00000  Uiso   1.00
C398   C     0.28747   0.77587   0.16216   0.00000  Uiso   1.00
C399   C     0.31918   0.79710   0.05849   0.00000  Uiso   1.00
C400   C     0.27992   0.90150   0.08389   0.00000  Uiso   1.00
C401   C     0.21084   0.88233   0.07072   0.00000  Uiso   1.00
C402   C     0.03577   0.64355   0.07464   0.00000  Uiso   1.00
C403   C     0.95087   0.53432   0.15297   0.00000  Uiso   1.00
C404   C     0.02661   0.53180   0.16416   0.00000  Uiso   1.00
C405   C     0.05821   0.52577   0.06885   0.00000  Uiso   1.00
C406   C     0.96348   0.63639   0.05999   0.00000  Uiso   1.00
C407   C     0.98368   0.51247   0.06245   0.00000  Uiso   1.00
C408   C     0.93953   0.55924   0.08638   0.00000  Uiso   1.00
C409   C     0.21645   0.67609   0.43887   0.00000  Uiso   1.00
C410   C     0.33888   0.67455   0.42464   0.00000  Uiso   1.00
C411   C     0.33253   0.59769   0.42602   0.00000  Uiso   1.00
C412   C     0.25185   0.64097   0.34369   0.00000  Uiso   1.00
C413   C     0.26113   0.58516   0.40792   0.00000  Uiso   1.00
C414   C     0.26301   0.71808   0.34004   0.00000  Uiso   1.00
C415   C     0.20868   0.60185   0.44413   0.00000  Uiso   1.00
C416   C     0.50723   0.33515   0.43478   0.00000  Uiso   1.00
C417   C     0.51090   0.43731   0.34000   0.00000  Uiso   1.00
C418   C     0.58598   0.44985   0.34502   0.00000  Uiso   1.00
C419   C     0.60624   0.41823   0.40996   0.00000  Uiso   1.00
C420   C     0.49263   0.45998   0.43066   0.00000  Uiso   1.00
C421   C     0.58234   0.34158   0.43987   0.00000  Uiso   1.00
C422   C     0.56783   0.45979   0.44249   0.00000  Uiso   1.00
C423   C     0.79164   0.35723   0.14948   0.00000  Uiso   1.00
C424   C     0.70147   0.30199   0.08779   0.00000  Uiso   1.00
C425   C     0.83182   0.37663   0.04807   0.00000  Uiso   1.00
C426   C     0.78742   0.27582   0.16214   0.00000  Uiso   1.00
C427   C     0.81914   0.29706   0.05849   0.00000  Uiso   1.00
C428   C     0.77991   0.40146   0.08389   0.00000  Uiso   1.00
C429   C     0.71080   0.38229   0.07072   0.00000  Uiso   1.00
C430   C     0.53545   0.14334   0.07489   0.00000  Uiso   1.00
C431   C     0.45038   0.03440   0.15340   0.00000  Uiso   1.00
C432   C     0.52614   0.03182   0.16462   0.00000  Uiso   1.00
C433   C     0.55700   0.02535   0.06954   0.00000  Uiso   1.00
C434   C     0.46314   0.13634   0.06023   0.00000  Uiso   1.00
C435   C     0.48261   0.01214   0.06313   0.00000  Uiso   1.00
C436   C     0.43883   0.05931   0.08684   0.00000  Uiso   1.00
C437   C     0.71735   0.18274   0.43806   0.00000  Uiso   1.00
C438   C     0.83964   0.17511   0.42417   0.00000  Uiso   1.00
C439   C     0.83485   0.09852   0.42407   0.00000  Uiso   1.00
C440   C     0.75393   0.14144   0.34205   0.00000  Uiso   1.00
C441   C     0.76436   0.08692   0.40528   0.00000  Uiso   1.00
C442   C     0.76390   0.21870   0.33896   0.00000  Uiso   1.00
C443   C     0.71350   0.10500   0.44384   0.00000  Uiso   1.00
C444   C     0.50721   0.83513   0.43479   0.00000  Uiso   1.00
C445   C     0.51088   0.93729   0.34001   0.00000  Uiso   1.00
C446   C     0.58598   0.94983   0.34503   0.00000  Uiso   1.00
C447   C     0.60624   0.91820   0.40997   0.00000  Uiso   1.00
C448   C     0.49263   0.95994   0.43067   0.00000  Uiso   1.00
C449   C     0.58232   0.84155   0.43987   0.00000  Uiso   1.00
C450   C     0.56783   0.95976   0.44251   0.00000  Uiso   1.00
C451   C     0.79165   0.85724   0.14949   0.00000  Uiso   1.00
C452   C     0.70147   0.80200   0.08780   0.00000  Uiso   1.00
C453   C     0.83181   0.87664   0.04807   0.00000  Uiso   1.00
C454   C     0.78744   0.77584   0.16215   0.00000  Uiso   1.00
C455   C     0.81915   0.79708   0.05850   0.00000  Uiso   1.00
C456   C     0.77990   0.90147   0.08390   0.00000  Uiso   1.00
C457   C     0.71080   0.88230   0.07073   0.00000  Uiso   1.00
C458   C     0.53549   0.64333   0.07490   0.00000  Uiso   1.00
C459   C     0.45041   0.53440   0.15341   0.00000  Uiso   1.00
C460   C     0.52616   0.53183   0.16463   0.00000  Uiso   1.00
C461   C     0.55702   0.52535   0.06954   0.00000  Uiso   1.00
C462   C     0.46318   0.63634   0.06025   0.00000  Uiso   1.00
C463   C     0.48263   0.51213   0.06314   0.00000  Uiso   1.00
C464   C     0.43886   0.55931   0.08685   0.00000  Uiso   1.00
C465   C     0.71734   0.68275   0.43804   0.00000  Uiso   1.00
C466   C     0.83963   0.67513   0.42414   0.00000  Uiso   1.00
C467   C     0.83483   0.59853   0.42405   0.00000  Uiso   1.00
C468   C     0.75391   0.64144   0.34203   0.00000  Uiso   1.00
C469   C     0.76435   0.58693   0.40526   0.00000  Uiso   1.00
C470   C     0.76388   0.71870   0.33894   0.00000  Uiso   1.00
C471   C     0.71349   0.60501   0.44383   0.00000  Uiso   1.00
Dy472  Dy    0.02345   0.23840   0.75239   0.00000  Uiso   1.00
Dy473  Dy    0.02346   0.73845   0.75237   0.00000  Uiso   1.00
Dy474  Dy    0.52329   0.23845   0.75224   0.00000  Uiso   1.00
Dy475  Dy    0.52315   0.73849   0.75231   0.00000  Uiso   1.00
Cs476  Cs    0.27398   0.48987   0.75196   0.00000  Uiso   1.00
Cs477  Cs    0.27397   0.98965   0.75190   0.00000  Uiso   1.00
Cs478  Cs    0.77375   0.48977   0.75196   0.00000  Uiso   1.00
Cs479  Cs    0.77381   0.98966   0.75192   0.00000  Uiso   1.00
O480   O     0.16976   0.10092   0.72707   0.00000  Uiso   1.00
O481   O     0.40336   0.19057   0.76377   0.00000  Uiso   1.00
O482   O     0.05039   0.33167   0.65097   0.00000  Uiso   1.00
O483   O     0.47255   0.25466   0.65404   0.00000  Uiso   1.00
O484   O     0.44880   0.28614   0.81357   0.00000  Uiso   1.00
O485   O     0.07286   0.22357   0.85094   0.00000  Uiso   1.00
O486   O     0.35424   0.32764   0.92563   0.00000  Uiso   1.00
O487   O     0.37858   0.08112   0.77014   0.00000  Uiso   1.00
O488   O     0.10698   0.13686   0.78544   0.00000  Uiso   1.00
O489   O     0.33326   0.44336   0.88222   0.00000  Uiso   1.00
O490   O     0.20487   0.03949   0.62752   0.00000  Uiso   1.00
O491   O     0.43667   0.34028   0.71944   0.00000  Uiso   1.00
O492   O     0.25964   0.36365   0.87996   0.00000  Uiso   1.00
O493   O     0.09735   0.18951   0.69088   0.00000  Uiso   1.00
O494   O     0.00509   0.33748   0.56874   0.00000  Uiso   1.00
O495   O     0.17579   0.38027   0.75241   0.00000  Uiso   1.00
O496   O     0.28595   0.11497   0.62340   0.00000  Uiso   1.00
O497   O     0.03569   0.14767   0.93713   0.00000  Uiso   1.00
O498   O     0.48188   0.12107   0.75178   0.00000  Uiso   1.00
O499   O     0.06841   0.35565   0.75431   0.00000  Uiso   1.00
O500   O     0.49589   0.14571   0.85531   0.00000  Uiso   1.00
O501   O     0.37041   0.36870   0.78023   0.00000  Uiso   1.00
O502   O     0.19167   0.15570   0.57846   0.00000  Uiso   1.00
O503   O     0.14248   0.28173   0.74241   0.00000  Uiso   1.00
O504   O     0.11649   0.28957   0.96844   0.00000  Uiso   1.00
O505   O     0.17074   0.43135   0.54189   0.00000  Uiso   1.00
O506   O     0.92964   0.18885   0.53160   0.00000  Uiso   1.00
O507   O     0.17144   0.06396   0.97540   0.00000  Uiso   1.00
O508   O     0.16976   0.60088   0.72691   0.00000  Uiso   1.00
O509   O     0.40319   0.69055   0.76412   0.00000  Uiso   1.00
O510   O     0.04996   0.83137   0.65123   0.00000  Uiso   1.00
O511   O     0.47251   0.75463   0.65413   0.00000  Uiso   1.00
O512   O     0.44888   0.78624   0.81358   0.00000  Uiso   1.00
O513   O     0.07319   0.72347   0.85137   0.00000  Uiso   1.00
O514   O     0.35421   0.82785   0.92564   0.00000  Uiso   1.00
O515   O     0.37820   0.58114   0.77059   0.00000  Uiso   1.00
O516   O     0.10702   0.63680   0.78533   0.00000  Uiso   1.00
O517   O     0.33323   0.94357   0.88223   0.00000  Uiso   1.00
O518   O     0.20508   0.53903   0.62730   0.00000  Uiso   1.00
O519   O     0.43663   0.84020   0.71945   0.00000  Uiso   1.00
O520   O     0.25930   0.86389   0.88043   0.00000  Uiso   1.00
O521   O     0.09708   0.68920   0.69080   0.00000  Uiso   1.00
O522   O     0.00467   0.83716   0.56899   0.00000  Uiso   1.00
O523   O     0.17579   0.88003   0.75252   0.00000  Uiso   1.00
O524   O     0.28556   0.61504   0.62333   0.00000  Uiso   1.00
O525   O     0.03604   0.64726   0.93744   0.00000  Uiso   1.00
O526   O     0.48151   0.62105   0.75182   0.00000  Uiso   1.00
O527   O     0.06842   0.85541   0.75443   0.00000  Uiso   1.00
O528   O     0.49571   0.64563   0.85542   0.00000  Uiso   1.00
O529   O     0.37031   0.86858   0.78023   0.00000  Uiso   1.00
O530   O     0.19169   0.65496   0.57733   0.00000  Uiso   1.00
O531   O     0.14247   0.78161   0.74234   0.00000  Uiso   1.00
O532   O     0.11668   0.78913   0.96782   0.00000  Uiso   1.00
O533   O     0.16522   0.92443   0.54990   0.00000  Uiso   1.00
O534   O     0.92971   0.68884   0.53163   0.00000  Uiso   1.00
O535   O     0.66979   0.10091   0.72710   0.00000  Uiso   1.00
O536   O     0.90346   0.19051   0.76386   0.00000  Uiso   1.00
O537   O     0.54994   0.33136   0.65118   0.00000  Uiso   1.00
O538   O     0.97282   0.25508   0.65393   0.00000  Uiso   1.00
O539   O     0.94884   0.28615   0.81356   0.00000  Uiso   1.00
O540   O     0.57282   0.22354   0.85093   0.00000  Uiso   1.00
O541   O     0.85442   0.32774   0.92546   0.00000  Uiso   1.00
O542   O     0.87867   0.08109   0.77014   0.00000  Uiso   1.00
O543   O     0.60702   0.13678   0.78553   0.00000  Uiso   1.00
O544   O     0.83306   0.44344   0.88253   0.00000  Uiso   1.00
O545   O     0.70519   0.03886   0.62785   0.00000  Uiso   1.00
O546   O     0.93683   0.34031   0.71942   0.00000  Uiso   1.00
O547   O     0.75967   0.36364   0.88003   0.00000  Uiso   1.00
O548   O     0.59707   0.18918   0.69100   0.00000  Uiso   1.00
O549   O     0.50456   0.33738   0.56891   0.00000  Uiso   1.00
O550   O     0.67576   0.38006   0.75255   0.00000  Uiso   1.00
O551   O     0.78574   0.11500   0.62350   0.00000  Uiso   1.00
O552   O     0.53573   0.14769   0.93716   0.00000  Uiso   1.00
O553   O     0.98194   0.12114   0.75162   0.00000  Uiso   1.00
O554   O     0.56838   0.35556   0.75429   0.00000  Uiso   1.00
O555   O     0.99598   0.14574   0.85523   0.00000  Uiso   1.00
O556   O     0.87052   0.36878   0.78016   0.00000  Uiso   1.00
O557   O     0.69153   0.15479   0.57806   0.00000  Uiso   1.00
O558   O     0.64243   0.28167   0.74233   0.00000  Uiso   1.00
O559   O     0.61653   0.28943   0.96838   0.00000  Uiso   1.00
O560   O     0.66522   0.42442   0.54990   0.00000  Uiso   1.00
O561   O     0.42955   0.18888   0.53166   0.00000  Uiso   1.00
O562   O     0.67150   0.06391   0.97545   0.00000  Uiso   1.00
O563   O     0.66978   0.60095   0.72710   0.00000  Uiso   1.00
O564   O     0.90352   0.69035   0.76407   0.00000  Uiso   1.00
O565   O     0.54992   0.83133   0.65122   0.00000  Uiso   1.00
O566   O     0.97266   0.75455   0.65418   0.00000  Uiso   1.00
O567   O     0.94894   0.78611   0.81364   0.00000  Uiso   1.00
O568   O     0.57274   0.72343   0.85088   0.00000  Uiso   1.00
O569   O     0.85440   0.82771   0.92549   0.00000  Uiso   1.00
O570   O     0.87862   0.58108   0.77004   0.00000  Uiso   1.00
O571   O     0.60688   0.63668   0.78554   0.00000  Uiso   1.00
O572   O     0.83302   0.94341   0.88253   0.00000  Uiso   1.00
O573   O     0.70518   0.53884   0.62786   0.00000  Uiso   1.00
O574   O     0.93673   0.84019   0.71951   0.00000  Uiso   1.00
O575   O     0.75966   0.86359   0.88004   0.00000  Uiso   1.00
O576   O     0.59696   0.68912   0.69100   0.00000  Uiso   1.00
O577   O     0.50456   0.83726   0.56897   0.00000  Uiso   1.00
O578   O     0.67584   0.87994   0.75255   0.00000  Uiso   1.00
O579   O     0.78586   0.61488   0.62339   0.00000  Uiso   1.00
O580   O     0.53575   0.64765   0.93718   0.00000  Uiso   1.00
O581   O     0.98196   0.62097   0.75177   0.00000  Uiso   1.00
O582   O     0.56843   0.85557   0.75428   0.00000  Uiso   1.00
O583   O     0.99633   0.64571   0.85541   0.00000  Uiso   1.00
O584   O     0.87049   0.86861   0.78031   0.00000  Uiso   1.00
O585   O     0.69160   0.65478   0.57809   0.00000  Uiso   1.00
O586   O     0.64240   0.78156   0.74237   0.00000  Uiso   1.00
O587   O     0.61651   0.78940   0.96838   0.00000  Uiso   1.00
O588   O     0.66521   0.92442   0.54992   0.00000  Uiso   1.00
O589   O     0.42959   0.68888   0.53172   0.00000  Uiso   1.00
O590   O     0.67150   0.56391   0.97545   0.00000  Uiso   1.00
N591   N     0.41751   0.33272   0.77117   0.00000  Uiso   1.00
N592   N     0.42013   0.12992   0.76193   0.00000  Uiso   1.00
N593   N     0.03497   0.17142   0.88279   0.00000  Uiso   1.00
N594   N     0.12992   0.34045   0.74961   0.00000  Uiso   1.00
N595   N     0.12583   0.14143   0.73433   0.00000  Uiso   1.00
N596   N     0.31558   0.37842   0.89604   0.00000  Uiso   1.00
N597   N     0.00935   0.30885   0.62302   0.00000  Uiso   1.00
N598   N     0.22757   0.10317   0.60956   0.00000  Uiso   1.00
N599   N     0.97960   0.40894   0.90061   0.00000  Uiso   1.00
N600   N     0.26591   0.26801   0.60632   0.00000  Uiso   1.00
N601   N     0.06292   0.06908   0.60700   0.00000  Uiso   1.00
N602   N     0.27655   0.21645   0.89947   0.00000  Uiso   1.00
N603   N     0.41746   0.83269   0.77119   0.00000  Uiso   1.00
N604   N     0.41984   0.62993   0.76222   0.00000  Uiso   1.00
N605   N     0.03532   0.67127   0.88307   0.00000  Uiso   1.00
N606   N     0.12994   0.84026   0.74965   0.00000  Uiso   1.00
N607   N     0.12575   0.64130   0.73424   0.00000  Uiso   1.00
N608   N     0.31543   0.87854   0.89620   0.00000  Uiso   1.00
N609   N     0.00906   0.80853   0.62324   0.00000  Uiso   1.00
N610   N     0.22750   0.60283   0.60906   0.00000  Uiso   1.00
N611   N     0.97956   0.90870   0.90065   0.00000  Uiso   1.00
N612   N     0.26758   0.76588   0.60724   0.00000  Uiso   1.00
N613   N     0.06348   0.56938   0.60653   0.00000  Uiso   1.00
N614   N     0.27561   0.71537   0.90053   0.00000  Uiso   1.00
N615   N     0.91760   0.33277   0.77114   0.00000  Uiso   1.00
N616   N     0.92022   0.12991   0.76191   0.00000  Uiso   1.00
N617   N     0.53494   0.17142   0.88281   0.00000  Uiso   1.00
N618   N     0.62988   0.34033   0.74961   0.00000  Uiso   1.00
N619   N     0.62575   0.14129   0.73443   0.00000  Uiso   1.00
N620   N     0.81559   0.37844   0.89612   0.00000  Uiso   1.00
N621   N     0.50897   0.30863   0.62316   0.00000  Uiso   1.00
N622   N     0.72747   0.10268   0.60954   0.00000  Uiso   1.00
N623   N     0.47952   0.40874   0.90063   0.00000  Uiso   1.00
N624   N     0.76753   0.26584   0.60722   0.00000  Uiso   1.00
N625   N     0.56285   0.06912   0.60699   0.00000  Uiso   1.00
N626   N     0.77652   0.21644   0.89946   0.00000  Uiso   1.00
N627   N     0.91760   0.83265   0.77124   0.00000  Uiso   1.00
N628   N     0.92024   0.62981   0.76199   0.00000  Uiso   1.00
N629   N     0.53484   0.67134   0.88283   0.00000  Uiso   1.00
N630   N     0.62991   0.84026   0.74962   0.00000  Uiso   1.00
N631   N     0.62566   0.64126   0.73444   0.00000  Uiso   1.00
N632   N     0.81556   0.87841   0.89613   0.00000  Uiso   1.00
N633   N     0.50895   0.80857   0.62322   0.00000  Uiso   1.00
N634   N     0.72754   0.60264   0.60951   0.00000  Uiso   1.00
N635   N     0.47950   0.90872   0.90064   0.00000  Uiso   1.00
N636   N     0.76754   0.76585   0.60723   0.00000  Uiso   1.00
N637   N     0.56288   0.56911   0.60700   0.00000  Uiso   1.00
N638   N     0.77650   0.71645   0.89943   0.00000  Uiso   1.00
H639   H     0.92799   0.40481   0.89814   0.00000  Uiso   1.00
H640   H     0.98265   0.31274   0.97826   0.00000  Uiso   1.00
H641   H     0.99612   0.30017   0.91132   0.00000  Uiso   1.00
H642   H     0.00278   0.39637   0.82175   0.00000  Uiso   1.00
H643   H     0.98396   0.48684   0.81416   0.00000  Uiso   1.00
H644   H     0.11532   0.42578   0.81902   0.00000  Uiso   1.00
H645   H     0.09672   0.50796   0.82769   0.00000  Uiso   1.00
H646   H     0.16061   0.42054   0.91419   0.00000  Uiso   1.00
H647   H     0.96231   0.44176   0.97108   0.00000  Uiso   1.00
H648   H     0.97500   0.51346   0.90122   0.00000  Uiso   1.00
H649   H     0.07724   0.43469   0.98950   0.00000  Uiso   1.00
H650   H     0.08764   0.51514   0.92713   0.00000  Uiso   1.00
H651   H     0.26140   0.21340   0.61387   0.00000  Uiso   1.00
H652   H     0.25442   0.37303   0.67607   0.00000  Uiso   1.00
H653   H     0.34145   0.36946   0.66123   0.00000  Uiso   1.00
H654   H     0.18188   0.29303   0.55010   0.00000  Uiso   1.00
H655   H     0.16378   0.28773   0.62271   0.00000  Uiso   1.00
H656   H     0.38338   0.38179   0.56257   0.00000  Uiso   1.00
H657   H     0.33076   0.41074   0.50100   0.00000  Uiso   1.00
H658   H     0.24775   0.25055   0.69499   0.00000  Uiso   1.00
H659   H     0.33408   0.24834   0.67479   0.00000  Uiso   1.00
H660   H     0.29846   0.29182   0.51953   0.00000  Uiso   1.00
H661   H     0.36295   0.26329   0.57141   0.00000  Uiso   1.00
H662   H     0.28521   0.46088   0.57360   0.00000  Uiso   1.00
H663   H     0.11397   0.07170   0.61402   0.00000  Uiso   1.00
H664   H     0.06583   0.17040   0.53481   0.00000  Uiso   1.00
H665   H     0.03854   0.17460   0.60282   0.00000  Uiso   1.00
H666   H     0.92888   0.98043   0.67572   0.00000  Uiso   1.00
H667   H     0.92493   0.07106   0.67070   0.00000  Uiso   1.00
H668   H     0.04558   0.97647   0.68297   0.00000  Uiso   1.00
H669   H     0.03848   0.05943   0.69363   0.00000  Uiso   1.00
H670   H     0.08529   0.97545   0.59075   0.00000  Uiso   1.00
H671   H     0.08230   0.05624   0.52778   0.00000  Uiso   1.00
H672   H     0.97023   0.95529   0.58826   0.00000  Uiso   1.00
H673   H     0.97253   0.02452   0.51687   0.00000  Uiso   1.00
H674   H     0.88562   0.05727   0.57791   0.00000  Uiso   1.00
H675   H     0.28022   0.26966   0.89670   0.00000  Uiso   1.00
H676   H     0.22108   0.18748   0.98076   0.00000  Uiso   1.00
H677   H     0.17168   0.21117   0.91723   0.00000  Uiso   1.00
H678   H     0.38148   0.20580   0.89685   0.00000  Uiso   1.00
H679   H     0.34473   0.17527   0.96824   0.00000  Uiso   1.00
H680   H     0.34594   0.05788   0.96764   0.00000  Uiso   1.00
H681   H     0.37177   0.09149   0.89296   0.00000  Uiso   1.00
H682   H     0.29077   0.12965   0.81321   0.00000  Uiso   1.00
H683   H     0.20367   0.13556   0.82779   0.00000  Uiso   1.00
H684   H     0.25759   0.03135   0.90873   0.00000  Uiso   1.00
H685   H     0.30673   0.24582   0.81113   0.00000  Uiso   1.00
H686   H     0.21934   0.25225   0.82369   0.00000  Uiso   1.00
H687   H     0.92797   0.90452   0.89817   0.00000  Uiso   1.00
H688   H     0.98281   0.81262   0.97832   0.00000  Uiso   1.00
H689   H     0.99599   0.79992   0.91137   0.00000  Uiso   1.00
H690   H     0.00279   0.89633   0.82171   0.00000  Uiso   1.00
H691   H     0.98393   0.98675   0.81425   0.00000  Uiso   1.00
H692   H     0.11530   0.92573   0.81901   0.00000  Uiso   1.00
H693   H     0.09669   0.00785   0.82778   0.00000  Uiso   1.00
H694   H     0.16058   0.92036   0.91422   0.00000  Uiso   1.00
H695   H     0.96223   0.94136   0.97123   0.00000  Uiso   1.00
H696   H     0.97492   0.01311   0.90141   0.00000  Uiso   1.00
H697   H     0.07733   0.93470   0.98957   0.00000  Uiso   1.00
H698   H     0.08717   0.01482   0.92692   0.00000  Uiso   1.00
H699   H     0.26475   0.71097   0.61512   0.00000  Uiso   1.00
H700   H     0.25465   0.87191   0.67667   0.00000  Uiso   1.00
H701   H     0.34155   0.86975   0.66061   0.00000  Uiso   1.00
H702   H     0.18339   0.78953   0.55116   0.00000  Uiso   1.00
H703   H     0.16473   0.78181   0.62430   0.00000  Uiso   1.00
H704   H     0.38221   0.88240   0.56257   0.00000  Uiso   1.00
H705   H     0.32959   0.91018   0.50108   0.00000  Uiso   1.00
H706   H     0.24873   0.74951   0.69554   0.00000  Uiso   1.00
H707   H     0.33532   0.74803   0.67584   0.00000  Uiso   1.00
H708   H     0.29871   0.79079   0.52002   0.00000  Uiso   1.00
H709   H     0.36431   0.76373   0.57087   0.00000  Uiso   1.00
H710   H     0.28231   0.95960   0.57374   0.00000  Uiso   1.00
H711   H     0.11441   0.57222   0.61379   0.00000  Uiso   1.00
H712   H     0.06597   0.67100   0.53455   0.00000  Uiso   1.00
H713   H     0.03866   0.67458   0.60279   0.00000  Uiso   1.00
H714   H     0.92931   0.48037   0.67535   0.00000  Uiso   1.00
H715   H     0.92534   0.57100   0.67025   0.00000  Uiso   1.00
H716   H     0.04605   0.47648   0.68252   0.00000  Uiso   1.00
H717   H     0.03886   0.55941   0.69320   0.00000  Uiso   1.00
H718   H     0.08618   0.47574   0.59039   0.00000  Uiso   1.00
H719   H     0.08376   0.55661   0.52699   0.00000  Uiso   1.00
H720   H     0.97150   0.45558   0.58755   0.00000  Uiso   1.00
H721   H     0.97338   0.52496   0.51623   0.00000  Uiso   1.00
H722   H     0.88633   0.55693   0.57740   0.00000  Uiso   1.00
H723   H     0.27801   0.76814   0.89874   0.00000  Uiso   1.00
H724   H     0.21708   0.68187   0.98158   0.00000  Uiso   1.00
H725   H     0.16983   0.70433   0.91866   0.00000  Uiso   1.00
H726   H     0.38058   0.70430   0.89641   0.00000  Uiso   1.00
H727   H     0.34517   0.67584   0.96820   0.00000  Uiso   1.00
H728   H     0.34374   0.55746   0.96968   0.00000  Uiso   1.00
H729   H     0.36818   0.58896   0.89472   0.00000  Uiso   1.00
H730   H     0.28934   0.62700   0.81643   0.00000  Uiso   1.00
H731   H     0.20195   0.63560   0.82852   0.00000  Uiso   1.00
H732   H     0.25777   0.53036   0.90857   0.00000  Uiso   1.00
H733   H     0.30600   0.74444   0.81200   0.00000  Uiso   1.00
H734   H     0.21883   0.75225   0.82453   0.00000  Uiso   1.00
H735   H     0.42792   0.40462   0.89812   0.00000  Uiso   1.00
H736   H     0.48265   0.31260   0.97829   0.00000  Uiso   1.00
H737   H     0.49610   0.29998   0.91135   0.00000  Uiso   1.00
H738   H     0.50276   0.39634   0.82170   0.00000  Uiso   1.00
H739   H     0.48392   0.48678   0.81422   0.00000  Uiso   1.00
H740   H     0.61527   0.42571   0.81902   0.00000  Uiso   1.00
H741   H     0.59666   0.50787   0.82773   0.00000  Uiso   1.00
H742   H     0.66052   0.42044   0.91425   0.00000  Uiso   1.00
H743   H     0.46221   0.44141   0.97121   0.00000  Uiso   1.00
H744   H     0.47482   0.51319   0.90139   0.00000  Uiso   1.00
H745   H     0.57728   0.43485   0.98952   0.00000  Uiso   1.00
H746   H     0.58709   0.51497   0.92685   0.00000  Uiso   1.00
H747   H     0.76470   0.21091   0.61509   0.00000  Uiso   1.00
H748   H     0.75463   0.37187   0.67666   0.00000  Uiso   1.00
H749   H     0.84153   0.36969   0.66061   0.00000  Uiso   1.00
H750   H     0.68332   0.28951   0.55115   0.00000  Uiso   1.00
H751   H     0.66468   0.28176   0.62428   0.00000  Uiso   1.00
H752   H     0.88220   0.38235   0.56258   0.00000  Uiso   1.00
H753   H     0.82959   0.41016   0.50109   0.00000  Uiso   1.00
H754   H     0.74866   0.24948   0.69550   0.00000  Uiso   1.00
H755   H     0.83526   0.24796   0.67583   0.00000  Uiso   1.00
H756   H     0.79866   0.29078   0.52001   0.00000  Uiso   1.00
H757   H     0.86426   0.26367   0.57085   0.00000  Uiso   1.00
H758   H     0.78228   0.45956   0.57374   0.00000  Uiso   1.00
H759   H     0.61386   0.07183   0.61398   0.00000  Uiso   1.00
H760   H     0.56576   0.17042   0.53479   0.00000  Uiso   1.00
H761   H     0.53848   0.17464   0.60281   0.00000  Uiso   1.00
H762   H     0.42887   0.98043   0.67572   0.00000  Uiso   1.00
H763   H     0.42490   0.07107   0.67070   0.00000  Uiso   1.00
H764   H     0.54556   0.97649   0.68296   0.00000  Uiso   1.00
H765   H     0.53844   0.05946   0.69362   0.00000  Uiso   1.00
H766   H     0.58527   0.97548   0.59076   0.00000  Uiso   1.00
H767   H     0.58227   0.05627   0.52778   0.00000  Uiso   1.00
H768   H     0.47021   0.95531   0.58825   0.00000  Uiso   1.00
H769   H     0.47251   0.02455   0.51686   0.00000  Uiso   1.00
H770   H     0.38559   0.05726   0.57792   0.00000  Uiso   1.00
H771   H     0.78019   0.26965   0.89669   0.00000  Uiso   1.00
H772   H     0.72104   0.18747   0.98074   0.00000  Uiso   1.00
H773   H     0.67163   0.21115   0.91722   0.00000  Uiso   1.00
H774   H     0.88145   0.20580   0.89685   0.00000  Uiso   1.00
H775   H     0.84469   0.17526   0.96823   0.00000  Uiso   1.00
H776   H     0.84592   0.05789   0.96763   0.00000  Uiso   1.00
H777   H     0.87176   0.09150   0.89295   0.00000  Uiso   1.00
H778   H     0.79075   0.12966   0.81319   0.00000  Uiso   1.00
H779   H     0.70365   0.13555   0.82778   0.00000  Uiso   1.00
H780   H     0.75756   0.03136   0.90873   0.00000  Uiso   1.00
H781   H     0.80671   0.24583   0.81112   0.00000  Uiso   1.00
H782   H     0.71931   0.25225   0.82366   0.00000  Uiso   1.00
H783   H     0.42788   0.90458   0.89814   0.00000  Uiso   1.00
H784   H     0.48264   0.81260   0.97830   0.00000  Uiso   1.00
H785   H     0.49604   0.79995   0.91137   0.00000  Uiso   1.00
H786   H     0.50275   0.89633   0.82171   0.00000  Uiso   1.00
H787   H     0.48391   0.98676   0.81423   0.00000  Uiso   1.00
H788   H     0.61526   0.92569   0.81903   0.00000  Uiso   1.00
H789   H     0.59666   0.00785   0.82774   0.00000  Uiso   1.00
H790   H     0.66051   0.92040   0.91426   0.00000  Uiso   1.00
H791   H     0.46219   0.94139   0.97122   0.00000  Uiso   1.00
H792   H     0.47485   0.01315   0.90139   0.00000  Uiso   1.00
H793   H     0.57728   0.93481   0.98954   0.00000  Uiso   1.00
H794   H     0.58709   0.01494   0.92687   0.00000  Uiso   1.00
H795   H     0.76468   0.71094   0.61509   0.00000  Uiso   1.00
H796   H     0.75464   0.87188   0.67667   0.00000  Uiso   1.00
H797   H     0.84153   0.86971   0.66061   0.00000  Uiso   1.00
H798   H     0.68332   0.78952   0.55116   0.00000  Uiso   1.00
H799   H     0.66468   0.78177   0.62429   0.00000  Uiso   1.00
H800   H     0.88219   0.88238   0.56257   0.00000  Uiso   1.00
H801   H     0.82957   0.91017   0.50109   0.00000  Uiso   1.00
H802   H     0.74868   0.74949   0.69551   0.00000  Uiso   1.00
H803   H     0.83528   0.74798   0.67583   0.00000  Uiso   1.00
H804   H     0.79867   0.79078   0.52003   0.00000  Uiso   1.00
H805   H     0.86428   0.76370   0.57088   0.00000  Uiso   1.00
H806   H     0.78229   0.95957   0.57375   0.00000  Uiso   1.00
H807   H     0.61389   0.57181   0.61399   0.00000  Uiso   1.00
H808   H     0.56579   0.67041   0.53479   0.00000  Uiso   1.00
H809   H     0.53852   0.67463   0.60282   0.00000  Uiso   1.00
H810   H     0.42889   0.48043   0.67574   0.00000  Uiso   1.00
H811   H     0.42494   0.57107   0.67072   0.00000  Uiso   1.00
H812   H     0.54558   0.47650   0.68297   0.00000  Uiso   1.00
H813   H     0.53846   0.55947   0.69362   0.00000  Uiso   1.00
H814   H     0.58529   0.47549   0.59075   0.00000  Uiso   1.00
H815   H     0.58228   0.55628   0.52778   0.00000  Uiso   1.00
H816   H     0.47024   0.45531   0.58827   0.00000  Uiso   1.00
H817   H     0.47251   0.52455   0.51687   0.00000  Uiso   1.00
H818   H     0.38563   0.55728   0.57789   0.00000  Uiso   1.00
H819   H     0.78016   0.76967   0.89666   0.00000  Uiso   1.00
H820   H     0.72103   0.68749   0.98072   0.00000  Uiso   1.00
H821   H     0.67162   0.71116   0.91720   0.00000  Uiso   1.00
H822   H     0.88144   0.70581   0.89683   0.00000  Uiso   1.00
H823   H     0.84466   0.67528   0.96821   0.00000  Uiso   1.00
H824   H     0.84590   0.55789   0.96762   0.00000  Uiso   1.00
H825   H     0.87175   0.59151   0.89293   0.00000  Uiso   1.00
H826   H     0.79073   0.62966   0.81318   0.00000  Uiso   1.00
H827   H     0.70363   0.63555   0.82777   0.00000  Uiso   1.00
H828   H     0.75754   0.53136   0.90873   0.00000  Uiso   1.00
H829   H     0.80669   0.74582   0.81110   0.00000  Uiso   1.00
H830   H     0.71930   0.75225   0.82364   0.00000  Uiso   1.00
C831   C     0.00725   0.33532   0.93477   0.00000  Uiso   1.00
C832   C     0.01094   0.43739   0.83998   0.00000  Uiso   1.00
C833   C     0.08603   0.44995   0.84499   0.00000  Uiso   1.00
C834   C     0.10633   0.41837   0.90992   0.00000  Uiso   1.00
C835   C     0.99279   0.46028   0.93055   0.00000  Uiso   1.00
C836   C     0.08236   0.34173   0.93987   0.00000  Uiso   1.00
C837   C     0.06800   0.46000   0.94248   0.00000  Uiso   1.00
C838   C     0.29162   0.35801   0.64925   0.00000  Uiso   1.00
C839   C     0.20069   0.30626   0.58617   0.00000  Uiso   1.00
C840   C     0.33284   0.37703   0.54795   0.00000  Uiso   1.00
C841   C     0.28641   0.27682   0.66152   0.00000  Uiso   1.00
C842   C     0.31857   0.29777   0.55826   0.00000  Uiso   1.00
C843   C     0.28146   0.40292   0.58357   0.00000  Uiso   1.00
C844   C     0.21280   0.38662   0.56753   0.00000  Uiso   1.00
C845   C     0.03552   0.14330   0.57490   0.00000  Uiso   1.00
C846   C     0.95042   0.03440   0.65339   0.00000  Uiso   1.00
C847   C     0.02617   0.03181   0.66462   0.00000  Uiso   1.00
C848   C     0.05702   0.02532   0.56955   0.00000  Uiso   1.00
C849   C     0.96321   0.13631   0.56022   0.00000  Uiso   1.00
C850   C     0.98263   0.01211   0.56314   0.00000  Uiso   1.00
C851   C     0.93887   0.05929   0.58684   0.00000  Uiso   1.00
C852   C     0.21740   0.18274   0.93808   0.00000  Uiso   1.00
C853   C     0.33968   0.17511   0.92418   0.00000  Uiso   1.00
C854   C     0.33486   0.09852   0.92408   0.00000  Uiso   1.00
C855   C     0.25395   0.14144   0.84206   0.00000  Uiso   1.00
C856   C     0.26438   0.08691   0.90529   0.00000  Uiso   1.00
C857   C     0.26392   0.21870   0.83898   0.00000  Uiso   1.00
C858   C     0.21351   0.10501   0.94384   0.00000  Uiso   1.00
C859   C     0.00728   0.83509   0.93476   0.00000  Uiso   1.00
C860   C     0.01092   0.93728   0.84001   0.00000  Uiso   1.00
C861   C     0.08601   0.94983   0.84503   0.00000  Uiso   1.00
C862   C     0.10630   0.91813   0.90998   0.00000  Uiso   1.00
C863   C     0.99269   0.95990   0.93070   0.00000  Uiso   1.00
C864   C     0.08245   0.84143   0.93968   0.00000  Uiso   1.00
C865   C     0.06789   0.95965   0.94254   0.00000  Uiso   1.00
C866   C     0.29167   0.85728   0.64948   0.00000  Uiso   1.00
C867   C     0.20152   0.80202   0.58780   0.00000  Uiso   1.00
C868   C     0.33183   0.87666   0.54807   0.00000  Uiso   1.00
C869   C     0.28747   0.77587   0.66216   0.00000  Uiso   1.00
C870   C     0.31918   0.79710   0.55849   0.00000  Uiso   1.00
C871   C     0.27992   0.90150   0.58389   0.00000  Uiso   1.00
C872   C     0.21084   0.88233   0.57072   0.00000  Uiso   1.00
C873   C     0.03577   0.64355   0.57464   0.00000  Uiso   1.00
C874   C     0.95087   0.53432   0.65297   0.00000  Uiso   1.00
C875   C     0.02661   0.53180   0.66416   0.00000  Uiso   1.00
C876   C     0.05821   0.52577   0.56885   0.00000  Uiso   1.00
C877   C     0.96348   0.63639   0.55999   0.00000  Uiso   1.00
C878   C     0.98368   0.51247   0.56245   0.00000  Uiso   1.00
C879   C     0.93953   0.55924   0.58638   0.00000  Uiso   1.00
C880   C     0.21645   0.67609   0.93887   0.00000  Uiso   1.00
C881   C     0.33888   0.67455   0.92464   0.00000  Uiso   1.00
C882   C     0.33253   0.59769   0.92602   0.00000  Uiso   1.00
C883   C     0.25185   0.64097   0.84369   0.00000  Uiso   1.00
C884   C     0.26113   0.58516   0.90792   0.00000  Uiso   1.00
C885   C     0.26301   0.71808   0.84004   0.00000  Uiso   1.00
C886   C     0.20868   0.60185   0.94413   0.00000  Uiso   1.00
C887   C     0.50723   0.33515   0.93478   0.00000  Uiso   1.00
C888   C     0.51090   0.43731   0.84000   0.00000  Uiso   1.00
C889   C     0.58598   0.44985   0.84502   0.00000  Uiso   1.00
C890   C     0.60624   0.41823   0.90996   0.00000  Uiso   1.00
C891   C     0.49263   0.45998   0.93066   0.00000  Uiso   1.00
C892   C     0.58234   0.34158   0.93987   0.00000  Uiso   1.00
C893   C     0.56783   0.45979   0.94249   0.00000  Uiso   1.00
C894   C     0.79164   0.35723   0.64948   0.00000  Uiso   1.00
C895   C     0.70147   0.30199   0.58779   0.00000  Uiso   1.00
C896   C     0.83182   0.37663   0.54807   0.00000  Uiso   1.00
C897   C     0.78742   0.27582   0.66214   0.00000  Uiso   1.00
C898   C     0.81914   0.29706   0.55849   0.00000  Uiso   1.00
C899   C     0.77991   0.40146   0.58389   0.00000  Uiso   1.00
C900   C     0.71080   0.38229   0.57072   0.00000  Uiso   1.00
C901   C     0.53545   0.14334   0.57489   0.00000  Uiso   1.00
C902   C     0.45038   0.03440   0.65340   0.00000  Uiso   1.00
C903   C     0.52614   0.03182   0.66462   0.00000  Uiso   1.00
C904   C     0.55700   0.02535   0.56954   0.00000  Uiso   1.00
C905   C     0.46314   0.13634   0.56023   0.00000  Uiso   1.00
C906   C     0.48261   0.01214   0.56313   0.00000  Uiso   1.00
C907   C     0.43883   0.05931   0.58684   0.00000  Uiso   1.00
C908   C     0.71735   0.18274   0.93806   0.00000  Uiso   1.00
C909   C     0.83964   0.17511   0.92417   0.00000  Uiso   1.00
C910   C     0.83485   0.09852   0.92407   0.00000  Uiso   1.00
C911   C     0.75393   0.14144   0.84205   0.00000  Uiso   1.00
C912   C     0.76436   0.08692   0.90528   0.00000  Uiso   1.00
C913   C     0.76390   0.21870   0.83896   0.00000  Uiso   1.00
C914   C     0.71350   0.10500   0.94384   0.00000  Uiso   1.00
C915   C     0.50721   0.83513   0.93479   0.00000  Uiso   1.00
C916   C     0.51088   0.93729   0.84001   0.00000  Uiso   1.00
C917   C     0.58598   0.94983   0.84503   0.00000  Uiso   1.00
C918   C     0.60624   0.91820   0.90997   0.00000  Uiso   1.00
C919   C     0.49263   0.95994   0.93067   0.00000  Uiso   1.00
C920   C     0.58232   0.84155   0.93987   0.00000  Uiso   1.00
C921   C     0.56783   0.95976   0.94251   0.00000  Uiso   1.00
C922   C     0.79165   0.85724   0.64949   0.00000  Uiso   1.00
C923   C     0.70147   0.80200   0.58780   0.00000  Uiso   1.00
C924   C     0.83181   0.87664   0.54807   0.00000  Uiso   1.00
C925   C     0.78744   0.77584   0.66215   0.00000  Uiso   1.00
C926   C     0.81915   0.79708   0.55850   0.00000  Uiso   1.00
C927   C     0.77990   0.90147   0.58390   0.00000  Uiso   1.00
C928   C     0.71080   0.88230   0.57073   0.00000  Uiso   1.00
C929   C     0.53549   0.64333   0.57490   0.00000  Uiso   1.00
C930   C     0.45041   0.53440   0.65341   0.00000  Uiso   1.00
C931   C     0.52616   0.53183   0.66463   0.00000  Uiso   1.00
C932   C     0.55702   0.52535   0.56954   0.00000  Uiso   1.00
C933   C     0.46318   0.63634   0.56025   0.00000  Uiso   1.00
C934   C     0.48263   0.51213   0.56314   0.00000  Uiso   1.00
C935   C     0.43886   0.55931   0.58685   0.00000  Uiso   1.00
C936   C     0.71734   0.68275   0.93804   0.00000  Uiso   1.00
C937   C     0.83963   0.67513   0.92414   0.00000  Uiso   1.00
C938   C     0.83483   0.59853   0.92405   0.00000  Uiso   1.00
C939   C     0.75391   0.64144   0.84203   0.00000  Uiso   1.00
C940   C     0.76435   0.58693   0.90526   0.00000  Uiso   1.00
C941   C     0.76388   0.71870   0.83894   0.00000  Uiso   1.00
C942   C     0.71349   0.60501   0.94383   0.00000  Uiso   1.00
