data_mo_s4f321_eurb_0m_a
_audit_creation_date               2024-11-18
_audit_creation_method
;
Olex2 1.5
(compiled 2024.02.16 svn.r378c4104 for OlexSys, GUI svn.r6928)
;
_shelx_SHELXL_version_number       '2018/3'
_audit_contact_author_address      ?
_audit_contact_author_email        ?
_audit_contact_author_name         ''
_audit_contact_author_phone        ?
_publ_contact_author_id_orcid      ?
_publ_section_references
;
Dolomanov, O.V., Bourhis, L.J., Gildea, R.J, Howard, J.A.K. & Puschmann, H.
 (2009), J. Appl. Cryst. 42, 339-341.

Sheldrick, G.M. (2008). Acta Cryst. A64, 112-122.
;
_chemical_name_common              ?
_chemical_name_systematic          ?
_chemical_formula_moiety           'Eu N8 O24 Rb, 4(C7 H13 F N)'
_chemical_formula_sum              'C28 H52 Eu F4 N12 O24 Rb'
_chemical_formula_weight           1254.24
_chemical_absolute_configuration   rm
_chemical_melting_point            ?
loop_
  _atom_type_symbol
  _atom_type_description
  _atom_type_scat_dispersion_real
  _atom_type_scat_dispersion_imag
  _atom_type_scat_source
 'C' 'C' 0.0033 0.0016 'International Tables Vol C Tables 4.2.6.8 and 6.1.1.4'
 'H' 'H' 0.0000 0.0000 'International Tables Vol C Tables 4.2.6.8 and 6.1.1.4'
 'Eu' 'Eu' -0.1578 3.6682
 'International Tables Vol C Tables 4.2.6.8 and 6.1.1.4'
 'F' 'F' 0.0171 0.0103 'International Tables Vol C Tables 4.2.6.8 and 6.1.1.4'
 'N' 'N' 0.0061 0.0033 'International Tables Vol C Tables 4.2.6.8 and 6.1.1.4'
 'O' 'O' 0.0106 0.0060 'International Tables Vol C Tables 4.2.6.8 and 6.1.1.4'
 'Rb' 'Rb' -0.9393 2.9676
 'International Tables Vol C Tables 4.2.6.8 and 6.1.1.4'

_shelx_space_group_comment
;
The symmetry employed for this shelxl refinement is uniquely defined
by the following loop, which should always be used as a source of
symmetry information in preference to the above space-group names.
They are only intended as comments.
;
_space_group_crystal_system        'monoclinic'
_space_group_IT_number             5
_space_group_name_H-M_alt          'C 1 2 1'
_space_group_name_Hall             'C 2y'
loop_
  _space_group_symop_operation_xyz
 'x, y, z'
 '-x, y, -z'
 'x+1/2, y+1/2, z'
 '-x+1/2, y+1/2, -z'

_cell_length_a                     24.182(10)
_cell_length_b                     9.907(3)
_cell_length_c                     9.916(4)
_cell_angle_alpha                  90
_cell_angle_beta                   91.330(10)
_cell_angle_gamma                  90
_cell_volume                       2374.9(16)
_cell_formula_units_Z              2
_cell_measurement_reflns_used      5657
_cell_measurement_temperature      300.00
_cell_measurement_theta_max        25.74
_cell_measurement_theta_min        2.23
_shelx_estimated_absorpt_T_max     0.792
_shelx_estimated_absorpt_T_min     0.774
_exptl_absorpt_coefficient_mu      2.449
_exptl_absorpt_correction_T_max    0.7454
_exptl_absorpt_correction_T_min    0.3899
_exptl_absorpt_correction_type     none
_exptl_absorpt_process_details
;
SADABS-2016/2 (Bruker,2016/2) was used for absorption correction.
wR2(int) was 0.1902 before and 0.1175 after correction.
The Ratio of minimum to maximum transmission is 0.5231.
The \l/2 correction factor is Not present.
;
_exptl_absorpt_special_details     ?
_exptl_crystal_colour              colourless
_exptl_crystal_colour_primary      colourless
_exptl_crystal_density_diffrn      1.754
_exptl_crystal_density_meas        ?
_exptl_crystal_density_method      ?
_exptl_crystal_description         block
_exptl_crystal_F_000               1264
_exptl_crystal_size_max            0.11
_exptl_crystal_size_mid            0.1
_exptl_crystal_size_min            0.1
_exptl_transmission_factor_max     ?
_exptl_transmission_factor_min     ?
_diffrn_reflns_av_R_equivalents    0.1414
_diffrn_reflns_av_unetI/netI       0.1206
_diffrn_reflns_Laue_measured_fraction_full  1.000
_diffrn_reflns_Laue_measured_fraction_max  0.992
_diffrn_reflns_limit_h_max         30
_diffrn_reflns_limit_h_min         -30
_diffrn_reflns_limit_k_max         12
_diffrn_reflns_limit_k_min         -12
_diffrn_reflns_limit_l_max         12
_diffrn_reflns_limit_l_min         -12
_diffrn_reflns_number              20783
_diffrn_reflns_point_group_measured_fraction_full  0.996
_diffrn_reflns_point_group_measured_fraction_max  0.982
_diffrn_reflns_theta_full          25.242
_diffrn_reflns_theta_max           26.575
_diffrn_reflns_theta_min           2.054
_diffrn_ambient_temperature        300.00
_diffrn_detector_area_resol_mean   ?
_diffrn_measured_fraction_theta_full  1.000
_diffrn_measured_fraction_theta_max  0.992
_diffrn_measurement_device_type    'Bruker APEX-II CCD'
_diffrn_measurement_method         '\f and \w scans'
_diffrn_radiation_type             MoK\a
_diffrn_radiation_wavelength       0.71073
_diffrn_source                     ?
_diffrn_source_current             1.4
_diffrn_source_power               0.07
_diffrn_source_voltage             50.0
_diffrn_standards_number           0
_reflns_Friedel_coverage           0.868
_reflns_Friedel_fraction_full      0.992
_reflns_Friedel_fraction_max       0.971
_reflns_number_gt                  3522
_reflns_number_total               4884
_reflns_special_details
;
 Reflections were merged by SHELXL according to the crystal
 class for the calculation of statistics and refinement.
 
 _reflns_Friedel_fraction is defined as the number of unique
 Friedel pairs measured divided by the number that would be
 possible theoretically, ignoring centric projections and
 systematic absences. Completness statistics refer to single and
 composite reflections containing twin component 1 only.
;
_reflns_threshold_expression       'I > 2\s(I)'
_computing_cell_refinement         'SAINT V8.40B (?, 2016)'
_computing_data_collection         ?
_computing_data_reduction          'SAINT V8.40B (?, 2016)'
_computing_molecular_graphics      'Olex2 1.5 (Dolomanov et al., 2009)'
_computing_publication_material    'Olex2 1.5 (Dolomanov et al., 2009)'
_computing_structure_refinement    'XL  (Sheldrick, 2008)'
_computing_structure_solution      'SHELXT 2018/2 (Sheldrick, 2018)'
_refine_diff_density_max           2.524
_refine_diff_density_min           -2.860
_refine_diff_density_rms           0.275
_refine_ls_abs_structure_details
;
 Refined as an inversion twin.
;
_refine_ls_abs_structure_Flack     0.92(5)
_refine_ls_extinction_coef         .
_refine_ls_extinction_method       none
_refine_ls_goodness_of_fit_ref     1.033
_refine_ls_hydrogen_treatment      constr
_refine_ls_matrix_type             full
_refine_ls_number_parameters       372
_refine_ls_number_reflns           4884
_refine_ls_number_restraints       450
_refine_ls_R_factor_all            0.1182
_refine_ls_R_factor_gt             0.0928
_refine_ls_restrained_S_all        1.029
_refine_ls_shift/su_max            0.000
_refine_ls_shift/su_mean           0.000
_refine_ls_structure_factor_coef   Fsqd
_refine_ls_weighting_details      
 'w=1/[\s^2^(Fo^2^)+(0.1901P)^2^] where P=(Fo^2^+2Fc^2^)/3'
_refine_ls_weighting_scheme        calc
_refine_ls_wR_factor_gt            0.2442
_refine_ls_wR_factor_ref           0.2757
_refine_special_details
;
 Refined as a 2-component inversion twin.
;
_olex2_refinement_description
;
1. Twinned data refinement
 Scales: 0.08(5)
 0.92(5)
2. Fixed Uiso
 At 1.2 times of:
  All C(H) groups, All C(H,H) groups, All N(H) groups
3. Shared sites
{N4, O11}
{N7, O3}
4. Restrained distances
 C9-C7 = C2-C7 = N5-C2 = N5-C5 = C9-C3 = N5-C3 = C11-C5
 1.5 with sigma of 0.02
 O2_$1-Eu1_$2
 2.5 with sigma of 0.02
 C8-C14 = C14-C10 = C12-C10 = C12-N2 = C6-N2 = C6-C4 = C8-C4 = C8-C1 = C1-N2
 1.5 with sigma of 0.02
 O5-N7 = O19-N4
 1.35 with sigma of 0.02
 O15-N3 = O2-N3
 1.36 with sigma of 0.02
 F2-C14
 1.36 with sigma of 0.02
 C11-C13
 1.5 with sigma of 0.01
 C11-C3
 2.5 with sigma of 0.04
 C11-C9
 2.5 with sigma of 0.04
 C3-C7
 2.5 with sigma of 0.04
 C2-C5
 2.5 with sigma of 0.04
 C11-C7
 3 with sigma of 0.04
 C11-C2
 3 with sigma of 0.04
 C11-F1
 2 with sigma of 0.04
 C3-F1
 2 with sigma of 0.04
 F1-C9
 2 with sigma of 0.04
 N2-C14
 3 with sigma of 0.04
 C1-C14
 2.4 with sigma of 0.04
 N2-C4
 2.4 with sigma of 0.04
 C12-C14
 2.5 with sigma of 0.04
 C4-C14
 2.5 with sigma of 0.02
 C10-C6
 3 with sigma of 0.02
 C6-C8
 2.5 with sigma of 0.04
 C8-C10
 2.5 with sigma of 0.04
 H3B-H5B
 2 with sigma of 0.04
5. Rigid bond restraints
 Eu1, N1
 with sigma for 1-2 distances of 0.001 and sigma for 1-3 distances of 0.002
6. Uiso/Uaniso restraints and constraints
Eu1 \\sim Rb1 \\sim O1 \\sim O2 \\sim O3 \\sim O4 \\sim O5 \\sim O6 \\sim O7
\\sim O8 \\sim O9 \\sim O10 \\sim O11 \\sim O12 \\sim O13 \\sim O14 \\sim O15
\\sim O16 \\sim O17 \\sim O18 \\sim O19 \\sim N1 \\sim N3 \\sim N4 \\sim N6
\\sim N7: within 2A with sigma of 0.01 and sigma for terminal atoms of 0.02
within 2A
F2 \\sim N2 \\sim C1 \\sim C4 \\sim C6 \\sim C8 \\sim C10 \\sim C12 \\sim C14:
within 2A with sigma of 0.01 and sigma for terminal atoms of 0.02 within 2A
F1 \\sim N5 \\sim C2 \\sim C3 \\sim C5 \\sim C7 \\sim C9 \\sim C11 \\sim C13:
within 2A with sigma of 0.01 and sigma for terminal atoms of 0.02 within 2A
Uanis(N1) \\sim Ueq: with sigma of 0.01 and sigma for terminal atoms of 0.02
Uanis(O6) \\sim Ueq: with sigma of 0.01 and sigma for terminal atoms of 0.02
Uanis(O4) \\sim Ueq, Uanis(O1) \\sim Ueq, Uanis(O8) \\sim Ueq, Uanis(O13) \\sim
Ueq: with sigma of 0.01 and sigma for terminal atoms of 0.02
Uanis(O19) \\sim Ueq: with sigma of 0.01 and sigma for terminal atoms of 0.02
Uanis(O7) \\sim Ueq: with sigma of 0.01 and sigma for terminal atoms of 0.02
Uanis(N4) = Uanis(O11)
Uanis(N7) = Uanis(O3)
7. Others
 Fixed Sof: O1(0.5) O2(0.5) O3(0.5) O4(0.5) O5(0.5) O6(0.5) O8(0.5) O9(0.5)
 O11(0.5) O15(0.5) O16(0.5) O17(0.5) O18(0.5) O19(0.5) N4(0.5) N7(0.5)
8.a Ternary CH refined with riding coordinates:
 N5(H5), C9(H9), C13(H13), N2(H2), C8(H8), C14(H14)
8.b Secondary CH2 refined with riding coordinates:
 C2(H2A,H2B), C3(H3A,H3B), C5(H5A,H5B), C7(H7A,H7B), C11(H11A,H11B), C1(H1A,
 H1B), C4(H4A,H4B), C6(H6A,H6B), C10(H10A,H10B), C12(H12A,H12B)
;
_atom_sites_solution_hydrogens     geom
_atom_sites_solution_primary       ?
_atom_sites_solution_secondary     ?
loop_
  _atom_site_label
  _atom_site_type_symbol
  _atom_site_fract_x
  _atom_site_fract_y
  _atom_site_fract_z
  _atom_site_U_iso_or_equiv
  _atom_site_adp_type
  _atom_site_occupancy
  _atom_site_site_symmetry_order
  _atom_site_calc_flag
  _atom_site_refinement_flags_posn
  _atom_site_refinement_flags_adp
  _atom_site_refinement_flags_occupancy
  _atom_site_disorder_assembly
  _atom_site_disorder_group
 Eu1 Eu 0.500000 0.30198(2) 0.000000 0.03374(14) Uani 1 2 d S T P A .
 Rb1 Rb 0.500000 0.80716(17) 0.500000 0.0341(3) Uani 1 2 d S T P . .
 O1 O 0.4962(8) 0.388(2) 0.247(2) 0.069(2) Uani 0.5 1 d . U P A 2
 O2 O 0.5418(5) 1.1341(12) 0.1667(13) 0.053(2) Uani 0.5 1 d D U P B 2
 O3 O 0.3563(6) 0.7205(15) 0.4178(13) 0.122(2) Uani 0.5 1 d . U P C 2
 O4 O 0.4912(9) 0.544(2) 0.086(2) 0.073(2) Uani 0.5 1 d . U P A 2
 O5 O 0.3834(10) 0.741(3) 0.5379(17) 0.120(2) Uani 0.5 1 d D U P D 1
 O6 O 0.5376(8) 0.465(2) 0.176(2) 0.070(2) Uani 0.5 1 d . U P A 1
 O7 O 0.4979(4) 0.9926(8) 0.2913(9) 0.072(2) Uani 1 1 d . U . . .
 O8 O 0.4492(9) 0.456(2) 0.171(2) 0.073(2) Uani 0.5 1 d . U P A 1
 O9 O 0.5037(8) 1.0626(14) 0.0944(16) 0.053(2) Uani 0.5 1 d . U P B 1
 O10 O 0.4051(4) 0.3701(9) -0.0948(10) 0.065(2) Uani 1 1 d . U . . .
 O11 O 0.3805(5) 0.8398(12) 0.3753(14) 0.1186(16) Uani 0.5 1 d . U P D 1
 O12 O 0.3261(4) 0.3232(15) -0.0409(12) 0.110(4) Uani 1 1 d . U . . .
 O13 O 0.4846(5) 0.5950(12) 0.3073(13) 0.096(3) Uani 1 1 d . U . . .
 O14 O 0.4002(4) 0.2214(10) 0.0534(11) 0.072(3) Uani 1 1 d . U . . .
 O15 O 0.4529(6) 1.1313(14) 0.1463(15) 0.056(2) Uani 0.5 1 d D U P B 2
 O16 O 0.3913(12) 0.674(3) 0.547(3) 0.121(3) Uani 0.5 1 d . U P D 1
 O17 O 0.4885(8) 1.2093(15) 0.2356(16) 0.055(2) Uani 0.5 1 d . U P B 1
 O18 O 0.3823(11) 0.917(3) 0.485(3) 0.116(2) Uani 0.5 1 d . U P C 2
 O19 O 0.3394(8) 0.9392(19) 0.345(2) 0.113(3) Uani 0.5 1 d D U P C 2
 N1 N 0.4944(5) 0.5130(13) 0.2115(14) 0.0713(19) Uani 1 1 d . U . . .
 N3 N 0.4966(4) 1.0831(8) 0.2150(10) 0.0529(17) Uani 1 1 d D U . . .
 N4 N 0.3805(5) 0.8398(12) 0.3753(14) 0.1186(16) Uani 0.5 1 d D U P C 2
 N6 N 0.3764(4) 0.2828(16) -0.0267(11) 0.072(2) Uani 1 1 d . U . . .
 N7 N 0.3563(6) 0.7205(15) 0.4178(13) 0.122(2) Uani 0.5 1 d D U P D 1
 F1 F 0.2738(6) 0.6874(18) -0.1739(18) 0.212(6) Uani 1 1 d D U . . .
 N5 N 0.3498(4) 0.7936(14) 0.0733(15) 0.154(3) Uani 1 1 d D U . . .
 H5 H 0.352449 0.776031 0.170529 0.185 Uiso 1 1 calc R U . . .
 C2 C 0.4011(5) 0.8690(17) 0.0359(16) 0.156(3) Uani 1 1 d D U . . .
 H2A H 0.393766 0.959815 0.003507 0.187 Uiso 1 1 calc R U . . .
 H2B H 0.429416 0.869639 0.106728 0.187 Uiso 1 1 calc R U . . .
 C3 C 0.3278(7) 0.6663(15) 0.0065(14) 0.166(3) Uani 1 1 d D U . . .
 H3A H 0.339946 0.583799 0.050812 0.199 Uiso 1 1 calc R U . . .
 H3B H 0.288075 0.666358 -0.008929 0.199 Uiso 1 1 calc DR U . . .
 C5 C 0.2980(6) 0.876(2) 0.0478(14) 0.163(3) Uani 1 1 d D U . . .
 H5A H 0.300103 0.962839 0.092705 0.195 Uiso 1 1 calc R U . . .
 H5B H 0.265248 0.828296 0.076312 0.195 Uiso 1 1 calc DR U . . .
 C7 C 0.4119(5) 0.7734(18) -0.0713(16) 0.162(3) Uani 1 1 d D U . . .
 H7A H 0.439122 0.707987 -0.039701 0.194 Uiso 1 1 calc R U . . .
 H7B H 0.427143 0.820896 -0.147532 0.194 Uiso 1 1 calc R U . . .
 C9 C 0.3600(5) 0.701(2) -0.1155(16) 0.165(3) Uani 1 1 d D U . . .
 H9 H 0.368983 0.619653 -0.166272 0.198 Uiso 1 1 calc R U . . .
 C11 C 0.2990(6) 0.8908(11) -0.1053(11) 0.172(3) Uani 1 1 d D U . . .
 H11A H 0.261065 0.903651 -0.136325 0.207 Uiso 1 1 calc R U . . .
 H11B H 0.318509 0.974071 -0.123995 0.207 Uiso 1 1 calc R U . . .
 C13 C 0.3232(6) 0.7846(13) -0.1919(13) 0.171(3) Uani 1 1 d D U . . .
 H13 H 0.333416 0.809084 -0.283786 0.205 Uiso 1 1 calc R U . . .
 F2 F 0.2741(5) 0.1212(17) 0.4020(14) 0.183(5) Uani 1 1 d D U . . .
 N2 N 0.3518(5) 0.3946(14) 0.4870(12) 0.133(3) Uani 1 1 d D U . . .
 H2 H 0.349275 0.489683 0.460336 0.159 Uiso 1 1 calc R U . . .
 C1 C 0.3492(7) 0.3008(13) 0.3637(12) 0.126(3) Uani 1 1 d D U . . .
 H1A H 0.312036 0.299535 0.324670 0.151 Uiso 1 1 calc R U . . .
 H1B H 0.374363 0.332163 0.295669 0.151 Uiso 1 1 calc R U . . .
 C4 C 0.4149(5) 0.2212(14) 0.4768(18) 0.139(3) Uani 1 1 d D U . . .
 H4A H 0.443340 0.227604 0.409767 0.166 Uiso 1 1 calc R U . . .
 H4B H 0.428114 0.158266 0.545249 0.166 Uiso 1 1 calc R U . . .
 C6 C 0.4096(5) 0.3594(13) 0.5432(16) 0.132(3) Uani 1 1 d D U . . .
 H6A H 0.437516 0.422310 0.513338 0.158 Uiso 1 1 calc R U . . .
 H6B H 0.410643 0.353826 0.640903 0.158 Uiso 1 1 calc R U . . .
 C8 C 0.3655(5) 0.1617(14) 0.4111(15) 0.133(3) Uani 1 1 d D U . . .
 H8 H 0.374068 0.099870 0.337271 0.160 Uiso 1 1 calc R U . . .
 C10 C 0.3084(6) 0.2082(13) 0.6134(15) 0.139(3) Uani 1 1 d D U . . .
 H10A H 0.274954 0.180416 0.657914 0.167 Uiso 1 1 calc R U . . .
 H10B H 0.338885 0.202980 0.678473 0.167 Uiso 1 1 calc R U . . .
 C12 C 0.3021(6) 0.3515(14) 0.5642(17) 0.140(3) Uani 1 1 d D U . . .
 H12A H 0.269232 0.358501 0.506558 0.167 Uiso 1 1 calc R U . . .
 H12B H 0.297469 0.411161 0.640679 0.167 Uiso 1 1 calc R U . . .
 C14 C 0.3192(4) 0.1141(14) 0.4960(12) 0.138(3) Uani 1 1 d D U . . .
 H14 H 0.325433 0.021260 0.527036 0.166 Uiso 1 1 calc R U . . .

loop_
  _atom_site_aniso_label
  _atom_site_aniso_U_11
  _atom_site_aniso_U_22
  _atom_site_aniso_U_33
  _atom_site_aniso_U_23
  _atom_site_aniso_U_13
  _atom_site_aniso_U_12
 Eu1 0.0460(3) 0.0268(3) 0.0286(3) 0.000 0.0050(2) 0.000
 Rb1 0.0567(6) 0.0160(4) 0.0296(5) 0.000 -0.0006(5) 0.000
 O1 0.073(4) 0.067(4) 0.068(4) 0.000(4) 0.002(4) -0.001(4)
 O2 0.092(5) 0.027(4) 0.040(4) 0.015(4) 0.007(4) 0.005(4)
 O3 0.122(4) 0.137(4) 0.109(4) 0.048(3) -0.003(3) 0.041(3)
 O4 0.077(4) 0.073(4) 0.071(4) 0.005(4) 0.007(4) 0.000(4)
 O5 0.119(4) 0.133(4) 0.107(4) 0.047(4) -0.005(4) 0.039(4)
 O6 0.074(4) 0.070(4) 0.067(4) 0.001(4) 0.006(4) 0.001(4)
 O7 0.102(5) 0.050(4) 0.063(4) 0.045(3) 0.017(4) 0.006(4)
 O8 0.077(4) 0.074(4) 0.070(4) 0.001(4) 0.005(4) 0.001(4)
 O9 0.093(5) 0.023(4) 0.043(4) 0.014(4) 0.004(4) 0.002(4)
 O10 0.056(4) 0.060(4) 0.079(5) 0.020(4) -0.002(4) -0.014(4)
 O11 0.118(3) 0.131(3) 0.106(3) 0.045(3) -0.009(3) 0.037(3)
 O12 0.072(6) 0.128(10) 0.131(8) 0.005(8) -0.009(6) -0.003(7)
 O13 0.097(5) 0.093(5) 0.097(5) -0.013(5) 0.005(5) 0.002(5)
 O14 0.061(5) 0.076(5) 0.079(5) -0.001(5) 0.000(4) -0.016(4)
 O15 0.098(5) 0.029(4) 0.040(4) 0.016(4) 0.002(4) 0.004(4)
 O16 0.121(6) 0.135(6) 0.107(5) 0.048(5) -0.002(5) 0.043(5)
 O17 0.098(5) 0.027(4) 0.041(4) 0.012(4) 0.003(4) 0.003(4)
 O18 0.114(4) 0.129(4) 0.106(4) 0.042(4) -0.013(4) 0.041(4)
 O19 0.112(4) 0.123(4) 0.102(4) 0.034(4) -0.009(4) 0.030(4)
 N1 0.073(3) 0.072(3) 0.068(3) 0.000(3) 0.005(3) 0.001(3)
 N3 0.095(3) 0.025(3) 0.039(3) 0.021(3) 0.006(3) 0.005(3)
 N4 0.118(3) 0.131(3) 0.106(3) 0.045(3) -0.009(3) 0.037(3)
 N6 0.054(4) 0.075(4) 0.085(4) 0.011(5) -0.003(4) 0.003(4)
 N7 0.122(4) 0.137(4) 0.109(4) 0.048(3) -0.003(3) 0.041(3)
 F1 0.135(10) 0.283(13) 0.217(12) -0.056(11) 0.008(10) -0.056(10)
 N5 0.087(4) 0.243(5) 0.132(5) -0.069(5) -0.004(4) -0.038(5)
 C2 0.081(5) 0.242(6) 0.146(6) -0.064(6) 0.006(6) -0.047(6)
 C3 0.102(6) 0.245(6) 0.150(6) -0.059(6) -0.003(6) -0.032(6)
 C5 0.092(6) 0.254(6) 0.141(6) -0.066(6) -0.015(6) -0.031(6)
 C7 0.085(5) 0.246(6) 0.154(6) -0.065(6) 0.001(5) -0.041(6)
 C9 0.095(5) 0.247(5) 0.153(5) -0.063(5) -0.007(5) -0.034(5)
 C11 0.098(6) 0.262(6) 0.156(6) -0.065(6) -0.018(6) -0.022(6)
 C13 0.098(5) 0.259(6) 0.156(6) -0.069(6) -0.015(5) -0.037(6)
 F2 0.140(8) 0.240(11) 0.165(10) -0.008(9) -0.052(7) -0.086(8)
 N2 0.122(5) 0.179(5) 0.096(5) 0.011(5) -0.011(4) -0.059(5)
 C1 0.119(5) 0.172(6) 0.086(5) 0.022(6) -0.016(5) -0.065(6)
 C4 0.121(6) 0.189(6) 0.103(6) 0.011(6) -0.025(6) -0.051(6)
 C6 0.115(6) 0.185(6) 0.093(6) 0.004(6) -0.037(5) -0.056(5)
 C8 0.122(5) 0.181(5) 0.096(5) 0.017(5) -0.017(5) -0.061(5)
 C10 0.126(6) 0.187(6) 0.104(6) 0.014(6) 0.001(6) -0.053(6)
 C12 0.126(6) 0.184(6) 0.109(6) 0.012(6) 0.005(6) -0.048(6)
 C14 0.121(5) 0.187(6) 0.106(5) 0.005(5) -0.014(5) -0.068(5)

_geom_special_details
;
 All esds (except the esd in the dihedral angle between two l.s. planes)
 are estimated using the full covariance matrix.  The cell esds are taken
 into account individually in the estimation of esds in distances, angles
 and torsion angles; correlations between esds in cell parameters are only
 used when they are defined by crystal symmetry.  An approximate (isotropic)
 treatment of cell esds is used for estimating esds involving l.s. planes.
;
loop_
  _geom_bond_atom_site_label_1
  _geom_bond_atom_site_label_2
  _geom_bond_distance
  _geom_bond_site_symmetry_2
  _geom_bond_publ_flag
 Eu1 O1 2.60(2) 2_655 ?
 Eu1 O1 2.60(2) . ?
 Eu1 O2 2.539(12) 2_645 ?
 Eu1 O2 2.539(12) 1_545 ?
 Eu1 O4 2.56(2) . ?
 Eu1 O4 2.56(2) 2_655 ?
 Eu1 O6 2.53(2) 2_655 ?
 Eu1 O6 2.53(2) . ?
 Eu1 O8 2.61(2) 2_655 ?
 Eu1 O8 2.61(2) . ?
 Eu1 O9 2.550(14) 1_545 ?
 Eu1 O9 2.550(14) 2_645 ?
 Eu1 O10 2.551(9) . ?
 Eu1 O10 2.551(9) 2_655 ?
 Eu1 O14 2.608(10) 2_655 ?
 Eu1 O14 2.608(10) . ?
 Eu1 O15 2.517(15) 2_645 ?
 Eu1 O15 2.517(15) 1_545 ?
 Eu1 O17 2.532(16) 2_645 ?
 Eu1 O17 2.532(16) 1_545 ?
 Rb1 O5 2.93(2) . ?
 Rb1 O5 2.93(2) 2_656 ?
 Rb1 O7 2.767(8) . ?
 Rb1 O7 2.767(8) 2_656 ?
 Rb1 O11 3.133(12) 2_656 ?
 Rb1 O13 2.859(12) 2_656 ?
 Rb1 O13 2.859(12) . ?
 Rb1 O16 2.99(3) 2_656 ?
 Rb1 O16 2.99(3) . ?
 Rb1 O18 3.05(3) 2_656 ?
 Rb1 O18 3.05(3) . ?
 Rb1 N4 3.133(12) . ?
 O1 N1 1.29(2) . ?
 O2 N3 1.307(15) . ?
 O3 N4 1.389(19) . ?
 O4 O4 1.77(4) 2_655 ?
 O4 N1 1.28(2) . ?
 O5 O16 0.69(4) . ?
 O5 N7 1.361(18) . ?
 O6 N1 1.21(2) . ?
 O7 N3 1.173(12) . ?
 O8 N1 1.29(2) . ?
 O9 N3 1.229(18) . ?
 O10 N6 1.306(15) . ?
 O11 N7 1.389(19) . ?
 O12 N6 1.287(15) . ?
 O13 N1 1.276(18) . ?
 O14 O15 1.792(17) 1_545 ?
 O14 N6 1.144(15) . ?
 O15 N3 1.332(15) . ?
 O16 N7 1.59(3) . ?
 O17 N3 1.282(17) . ?
 O18 O19 1.72(3) . ?
 O18 N4 1.33(3) . ?
 O19 N4 1.426(18) . ?
 F1 C13 1.55(2) . ?
 N5 H5 0.9800 . ?
 N5 C2 1.502(16) . ?
 N5 C3 1.515(17) . ?
 N5 C5 1.510(17) . ?
 C2 H2A 0.9700 . ?
 C2 H2B 0.9700 . ?
 C2 C7 1.452(18) . ?
 C3 H3A 0.9700 . ?
 C3 H3B 0.9700 . ?
 C3 C9 1.495(18) . ?
 C5 H5A 0.9700 . ?
 C5 H5B 0.9700 . ?
 C5 C11 1.526(16) . ?
 C7 H7A 0.9700 . ?
 C7 H7B 0.9700 . ?
 C7 C9 1.501(17) . ?
 C9 H9 0.9800 . ?
 C9 C13 1.42(2) . ?
 C11 H11A 0.9700 . ?
 C11 H11B 0.9700 . ?
 C11 C13 1.487(11) . ?
 C13 H13 0.9800 . ?
 F2 C14 1.420(15) . ?
 N2 H2 0.9800 . ?
 N2 C1 1.535(16) . ?
 N2 C6 1.534(15) . ?
 N2 C12 1.502(17) . ?
 C1 H1A 0.9700 . ?
 C1 H1B 0.9700 . ?
 C1 C8 1.506(17) . ?
 C4 H4A 0.9700 . ?
 C4 H4B 0.9700 . ?
 C4 C6 1.527(17) . ?
 C4 C8 1.470(16) . ?
 C6 H6A 0.9700 . ?
 C6 H6B 0.9700 . ?
 C8 H8 0.9800 . ?
 C8 C14 1.492(16) . ?
 C10 H10A 0.9700 . ?
 C10 H10B 0.9700 . ?
 C10 C12 1.508(17) . ?
 C10 C14 1.519(17) . ?
 C12 H12A 0.9700 . ?
 C12 H12B 0.9700 . ?
 C14 H14 0.9800 . ?

loop_
  _geom_angle_atom_site_label_1
  _geom_angle_atom_site_label_2
  _geom_angle_atom_site_label_3
  _geom_angle
  _geom_angle_site_symmetry_1
  _geom_angle_site_symmetry_3
  _geom_angle_publ_flag
 O1 Eu1 O14 81.7(5) . . ?
 O1 Eu1 O14 110.2(5) 2_655 . ?
 O2 Eu1 O1 143.8(5) 2_645 . ?
 O2 Eu1 O1 67.9(5) 1_545 . ?
 O2 Eu1 O4 142.8(5) 2_645 . ?
 O2 Eu1 O4 115.6(5) 1_545 . ?
 O2 Eu1 O10 65.9(4) 2_645 . ?
 O2 Eu1 O10 139.0(4) 1_545 . ?
 O2 Eu1 O14 64.9(4) 2_645 . ?
 O2 Eu1 O14 91.4(4) 1_545 . ?
 O4 Eu1 O1 90.6(6) 2_655 . ?
 O4 Eu1 O1 51.1(6) . . ?
 O4 Eu1 O4 40.4(9) 2_655 . ?
 O4 Eu1 O14 116.1(5) 2_655 . ?
 O4 Eu1 O14 97.7(5) . . ?
 O6 Eu1 O1 32.9(6) 2_655 2_655 ?
 O6 Eu1 O1 114.8(6) . 2_655 ?
 O6 Eu1 O2 176.7(6) . 2_645 ?
 O6 Eu1 O2 80.7(5) 2_655 2_645 ?
 O6 Eu1 O2 176.7(6) 2_655 1_545 ?
 O6 Eu1 O2 80.7(5) . 1_545 ?
 O6 Eu1 O4 66.4(6) . 2_655 ?
 O6 Eu1 O4 37.1(6) 2_655 2_655 ?
 O6 Eu1 O6 100.7(9) 2_655 . ?
 O6 Eu1 O8 49.1(6) . . ?
 O6 Eu1 O8 49.1(6) 2_655 2_655 ?
 O6 Eu1 O8 84.6(6) 2_655 . ?
 O6 Eu1 O8 84.6(6) . 2_655 ?
 O6 Eu1 O9 109.4(6) 2_655 2_645 ?
 O6 Eu1 O9 109.4(6) . 1_545 ?
 O6 Eu1 O9 148.8(6) . 2_645 ?
 O6 Eu1 O9 148.8(6) 2_655 1_545 ?
 O6 Eu1 O10 113.0(5) 2_655 2_655 ?
 O6 Eu1 O10 113.0(5) . . ?
 O6 Eu1 O10 43.2(5) . 2_655 ?
 O6 Eu1 O10 43.2(5) 2_655 . ?
 O6 Eu1 O14 112.0(5) . . ?
 O6 Eu1 O14 90.9(5) 2_655 . ?
 O6 Eu1 O14 112.0(5) 2_655 2_655 ?
 O6 Eu1 O14 90.9(5) . 2_655 ?
 O6 Eu1 O17 145.3(6) . 2_645 ?
 O6 Eu1 O17 69.0(6) . 1_545 ?
 O6 Eu1 O17 145.3(6) 2_655 1_545 ?
 O6 Eu1 O17 69.0(6) 2_655 2_645 ?
 O8 Eu1 O8 108.3(9) 2_655 . ?
 O8 Eu1 O14 139.7(5) 2_655 . ?
 O8 Eu1 O14 66.1(5) . . ?
 O8 Eu1 O14 66.2(5) 2_655 2_655 ?
 O8 Eu1 O14 139.7(5) . 2_655 ?
 O9 Eu1 O1 130.6(6) 1_545 2_655 ?
 O9 Eu1 O1 87.8(6) 2_645 2_655 ?
 O9 Eu1 O4 138.8(5) 2_645 2_655 ?
 O9 Eu1 O4 173.0(7) 1_545 2_655 ?
 O9 Eu1 O8 140.4(6) 1_545 2_655 ?
 O9 Eu1 O8 140.4(6) 2_645 . ?
 O9 Eu1 O8 108.6(6) 1_545 . ?
 O9 Eu1 O8 108.6(6) 2_645 2_655 ?
 O9 Eu1 O9 43.2(7) 2_645 1_545 ?
 O9 Eu1 O10 113.9(5) 2_645 2_655 ?
 O9 Eu1 O10 95.0(5) 2_645 . ?
 O9 Eu1 O10 95.0(5) 1_545 2_655 ?
 O9 Eu1 O10 113.9(5) 1_545 . ?
 O9 Eu1 O14 76.4(5) 1_545 2_655 ?
 O9 Eu1 O14 70.4(5) 2_645 2_655 ?
 O9 Eu1 O14 76.4(5) 2_645 . ?
 O9 Eu1 O14 70.4(5) 1_545 . ?
 O10 Eu1 O1 67.5(5) 2_655 . ?
 O10 Eu1 O1 102.0(5) . . ?
 O10 Eu1 O1 102.0(5) 2_655 2_655 ?
 O10 Eu1 O1 67.5(5) . 2_655 ?
 O10 Eu1 O4 78.1(5) . . ?
 O10 Eu1 O4 78.1(5) 2_655 2_655 ?
 O10 Eu1 O4 73.1(5) 2_655 . ?
 O10 Eu1 O4 73.1(5) . 2_655 ?
 O10 Eu1 O8 69.6(5) 2_655 2_655 ?
 O10 Eu1 O8 92.2(5) 2_655 . ?
 O10 Eu1 O8 92.2(5) . 2_655 ?
 O10 Eu1 O8 69.6(5) . . ?
 O10 Eu1 O10 149.3(4) 2_655 . ?
 O10 Eu1 O14 47.7(3) 2_655 2_655 ?
 O10 Eu1 O14 146.6(3) . 2_655 ?
 O10 Eu1 O14 146.6(3) 2_655 . ?
 O10 Eu1 O14 47.7(3) . . ?
 O14 Eu1 O14 144.4(4) . 2_655 ?
 O15 Eu1 O1 142.2(5) 2_645 . ?
 O15 Eu1 O1 69.6(6) 1_545 . ?
 O15 Eu1 O4 113.3(6) 1_545 . ?
 O15 Eu1 O4 149.9(6) 2_645 . ?
 O15 Eu1 O10 88.5(4) 1_545 . ?
 O15 Eu1 O10 112.4(4) 2_645 . ?
 O15 Eu1 O14 40.9(4) 1_545 . ?
 O15 Eu1 O14 110.2(4) 2_645 . ?
 O17 Eu1 O1 40.7(5) 2_645 2_655 ?
 O17 Eu1 O1 175.2(6) 1_545 2_655 ?
 O17 Eu1 O2 108.2(5) 1_545 2_645 ?
 O17 Eu1 O2 108.2(5) 2_645 1_545 ?
 O17 Eu1 O2 38.0(5) 2_645 2_645 ?
 O17 Eu1 O2 38.0(5) 1_545 1_545 ?
 O17 Eu1 O4 131.3(6) 1_545 2_655 ?
 O17 Eu1 O4 91.2(6) 2_645 2_655 ?
 O17 Eu1 O8 63.3(6) 2_645 2_655 ?
 O17 Eu1 O8 63.3(6) 1_545 . ?
 O17 Eu1 O8 151.0(6) 2_645 . ?
 O17 Eu1 O8 151.0(6) 1_545 2_655 ?
 O17 Eu1 O9 47.7(5) 1_545 1_545 ?
 O17 Eu1 O9 89.9(5) 2_645 1_545 ?
 O17 Eu1 O9 89.9(5) 1_545 2_645 ?
 O17 Eu1 O9 47.7(5) 2_645 2_645 ?
 O17 Eu1 O10 82.7(5) 2_645 . ?
 O17 Eu1 O10 82.7(5) 1_545 2_655 ?
 O17 Eu1 O10 108.6(5) 1_545 . ?
 O17 Eu1 O10 108.6(5) 2_645 2_655 ?
 O17 Eu1 O14 101.5(5) 1_545 2_655 ?
 O17 Eu1 O14 101.5(5) 2_645 . ?
 O17 Eu1 O14 65.1(5) 1_545 . ?
 O17 Eu1 O14 65.1(5) 2_645 2_655 ?
 O17 Eu1 O17 137.4(7) 2_645 1_545 ?
 O5 Rb1 O5 154.1(10) 2_656 . ?
 O5 Rb1 O11 148.7(4) . 2_656 ?
 O5 Rb1 O11 36.1(4) 2_656 2_656 ?
 O5 Rb1 O16 140.8(8) . 2_656 ?
 O5 Rb1 O16 13.4(7) 2_656 2_656 ?
 O5 Rb1 O16 140.8(8) 2_656 . ?
 O5 Rb1 O16 13.4(7) . . ?
 O5 Rb1 O18 167.1(6) . 2_656 ?
 O5 Rb1 O18 35.5(7) 2_656 2_656 ?
 O7 Rb1 O5 93.1(5) . 2_656 ?
 O7 Rb1 O5 104.1(5) . . ?
 O7 Rb1 O5 104.1(5) 2_656 2_656 ?
 O7 Rb1 O5 93.1(5) 2_656 . ?
 O7 Rb1 O7 96.8(4) 2_656 . ?
 O7 Rb1 O11 103.1(3) . 2_656 ?
 O7 Rb1 O11 68.6(3) 2_656 2_656 ?
 O7 Rb1 O13 89.3(3) 2_656 2_656 ?
 O7 Rb1 O13 171.0(3) 2_656 . ?
 O7 Rb1 O13 171.0(3) . 2_656 ?
 O7 Rb1 O13 89.3(3) . . ?
 O7 Rb1 O16 100.2(6) . 2_656 ?
 O7 Rb1 O16 114.1(6) . . ?
 O7 Rb1 O16 100.2(6) 2_656 . ?
 O7 Rb1 O16 114.1(6) 2_656 2_656 ?
 O7 Rb1 O18 78.4(5) . 2_656 ?
 O7 Rb1 O18 74.1(5) . . ?
 O7 Rb1 O18 78.4(5) 2_656 . ?
 O7 Rb1 O18 74.1(5) 2_656 2_656 ?
 O7 Rb1 N4 103.1(3) 2_656 . ?
 O7 Rb1 N4 68.6(3) . . ?
 O13 Rb1 O5 82.0(5) 2_656 . ?
 O13 Rb1 O5 79.1(5) . . ?
 O13 Rb1 O5 79.1(5) 2_656 2_656 ?
 O13 Rb1 O5 82.0(5) . 2_656 ?
 O13 Rb1 O11 116.4(3) . 2_656 ?
 O13 Rb1 O11 73.0(4) 2_656 2_656 ?
 O13 Rb1 O13 85.3(5) . 2_656 ?
 O13 Rb1 O16 70.9(6) 2_656 . ?
 O13 Rb1 O16 70.9(6) . 2_656 ?
 O13 Rb1 O16 71.3(6) . . ?
 O13 Rb1 O16 71.3(6) 2_656 2_656 ?
 O13 Rb1 O18 113.7(6) . 2_656 ?
 O13 Rb1 O18 113.7(6) 2_656 . ?
 O13 Rb1 O18 97.1(6) 2_656 2_656 ?
 O13 Rb1 O18 97.1(6) . . ?
 O13 Rb1 N4 73.0(4) . . ?
 O13 Rb1 N4 116.4(3) 2_656 . ?
 O16 Rb1 O11 45.6(6) 2_656 2_656 ?
 O16 Rb1 O11 142.3(6) . 2_656 ?
 O16 Rb1 O16 127.7(11) . 2_656 ?
 O16 Rb1 O18 167.0(7) . 2_656 ?
 O16 Rb1 O18 48.8(7) 2_656 2_656 ?
 O18 Rb1 O18 138.1(10) 2_656 . ?
 O18 Rb1 N4 24.8(5) . . ?
 O18 Rb1 N4 146.5(6) 2_656 . ?
 N1 O1 Eu1 93.3(12) . . ?
 N3 O2 Eu1 99.6(8) . 1_565 ?
 O4 O4 Eu1 69.8(5) 2_655 . ?
 N1 O4 Eu1 95.3(12) . . ?
 N1 O4 O4 157.7(19) . 2_655 ?
 O16 O5 Rb1 88(3) . . ?
 O16 O5 N7 96(3) . . ?
 N7 O5 Rb1 111.5(13) . . ?
 N1 O6 Eu1 98.9(13) . . ?
 N3 O7 Rb1 171.7(8) . . ?
 N1 O8 Eu1 93.0(13) . . ?
 N3 O9 Eu1 101.5(9) . 1_565 ?
 N6 O10 Eu1 96.7(7) . . ?
 N7 O11 Rb1 100.6(8) . . ?
 N1 O13 Rb1 160.4(10) . . ?
 O15 O14 Eu1 66.8(6) 1_545 . ?
 N6 O14 Eu1 98.6(8) . . ?
 N6 O14 O15 163.9(11) . 1_545 ?
 O14 O15 Eu1 72.3(6) 1_565 1_565 ?
 N3 O15 Eu1 99.9(9) . 1_565 ?
 N3 O15 O14 170.7(12) . 1_565 ?
 O5 O16 Rb1 79(3) . . ?
 O5 O16 N7 59(2) . . ?
 N7 O16 Rb1 101.7(14) . . ?
 N3 O17 Eu1 100.7(10) . 1_565 ?
 O19 O18 Rb1 128.9(15) . . ?
 N4 O18 Rb1 81.1(13) . . ?
 N4 O18 O19 53.8(12) . . ?
 N4 O19 O18 48.8(12) . . ?
 O1 N1 Eu1 61.1(11) . . ?
 O4 N1 Eu1 59.2(11) . . ?
 O4 N1 O1 120.1(17) . . ?
 O6 N1 Eu1 57.4(11) . . ?
 O6 N1 O8 117.9(17) . . ?
 O6 N1 O13 130.1(16) . . ?
 O8 N1 Eu1 61.3(11) . . ?
 O13 N1 Eu1 170.8(10) . . ?
 O13 N1 O1 114.3(15) . . ?
 O13 N1 O4 124.0(15) . . ?
 O13 N1 O8 110.1(15) . . ?
 O2 N3 O15 109.6(10) . . ?
 O7 N3 Eu1 174.5(8) . 1_565 ?
 O7 N3 O2 121.3(11) . . ?
 O7 N3 O9 119.9(11) . . ?
 O7 N3 O15 127.9(11) . . ?
 O7 N3 O17 130.2(12) . . ?
 O9 N3 Eu1 55.2(7) . 1_565 ?
 O9 N3 O17 109.9(12) . . ?
 O17 N3 Eu1 54.8(8) . 1_565 ?
 O3 N4 Rb1 100.6(8) . . ?
 O3 N4 O19 110.7(14) . . ?
 O18 N4 Rb1 74.0(12) . . ?
 O18 N4 O3 104.4(16) . . ?
 O18 N4 O19 77.4(16) . . ?
 O19 N4 Rb1 141.8(11) . . ?
 O10 N6 Eu1 57.6(5) . . ?
 O12 N6 Eu1 158.2(12) . . ?
 O12 N6 O10 104.4(12) . . ?
 O14 N6 Eu1 59.3(7) . . ?
 O14 N6 O10 116.6(10) . . ?
 O14 N6 O12 134.4(12) . . ?
 O5 N7 Rb1 48.2(11) . . ?
 O5 N7 O11 86.6(14) . . ?
 O5 N7 O16 25.7(15) . . ?
 O11 N7 Rb1 57.5(7) . . ?
 O11 N7 O16 105.6(15) . . ?
 O16 N7 Rb1 53.2(12) . . ?
 C2 N5 H5 107.2 . . ?
 C2 N5 C3 126.1(12) . . ?
 C2 N5 C5 112.1(13) . . ?
 C3 N5 H5 107.2 . . ?
 C5 N5 H5 107.2 . . ?
 C5 N5 C3 95.5(11) . . ?
 N5 C2 H2A 113.4 . . ?
 N5 C2 H2B 113.4 . . ?
 H2A C2 H2B 110.7 . . ?
 C7 C2 N5 91.2(11) . . ?
 C7 C2 H2A 113.4 . . ?
 C7 C2 H2B 113.4 . . ?
 N5 C3 H3A 113.9 . . ?
 N5 C3 H3B 113.9 . . ?
 H3A C3 H3B 111.1 . . ?
 C9 C3 N5 88.7(12) . . ?
 C9 C3 H3A 113.9 . . ?
 C9 C3 H3B 113.9 . . ?
 N5 C5 H5A 111.6 . . ?
 N5 C5 H5B 111.6 . . ?
 N5 C5 C11 100.7(11) . . ?
 H5A C5 H5B 109.4 . . ?
 C11 C5 H5A 111.6 . . ?
 C11 C5 H5B 111.6 . . ?
 C2 C7 H7A 109.4 . . ?
 C2 C7 H7B 109.4 . . ?
 C2 C7 C9 111.1(12) . . ?
 H7A C7 H7B 108.0 . . ?
 C9 C7 H7A 109.4 . . ?
 C9 C7 H7B 109.4 . . ?
 C3 C9 C7 108.8(13) . . ?
 C3 C9 H9 110.5 . . ?
 C7 C9 H9 110.5 . . ?
 C13 C9 C3 103.6(12) . . ?
 C13 C9 C7 112.9(16) . . ?
 C13 C9 H9 110.5 . . ?
 C5 C11 H11A 107.0 . . ?
 C5 C11 H11B 107.0 . . ?
 H11A C11 H11B 106.7 . . ?
 C13 C11 C5 121.4(11) . . ?
 C13 C11 H11A 107.0 . . ?
 C13 C11 H11B 107.0 . . ?
 F1 C13 H13 118.2 . . ?
 C9 C13 F1 93.1(12) . . ?
 C9 C13 C11 110.7(12) . . ?
 C9 C13 H13 118.2 . . ?
 C11 C13 F1 93.3(11) . . ?
 C11 C13 H13 118.2 . . ?
 C1 N2 H2 111.5 . . ?
 C6 N2 H2 111.5 . . ?
 C6 N2 C1 99.9(11) . . ?
 C12 N2 H2 111.5 . . ?
 C12 N2 C1 102.5(11) . . ?
 C12 N2 C6 118.9(12) . . ?
 N2 C1 H1A 110.2 . . ?
 N2 C1 H1B 110.2 . . ?
 H1A C1 H1B 108.5 . . ?
 C8 C1 N2 107.5(11) . . ?
 C8 C1 H1A 110.2 . . ?
 C8 C1 H1B 110.2 . . ?
 H4A C4 H4B 107.1 . . ?
 C6 C4 H4A 107.7 . . ?
 C6 C4 H4B 107.7 . . ?
 C8 C4 H4A 107.7 . . ?
 C8 C4 H4B 107.7 . . ?
 C8 C4 C6 118.4(11) . . ?
 N2 C6 H6A 112.2 . . ?
 N2 C6 H6B 112.2 . . ?
 C4 C6 N2 97.6(10) . . ?
 C4 C6 H6A 112.2 . . ?
 C4 C6 H6B 112.2 . . ?
 H6A C6 H6B 109.8 . . ?
 C1 C8 H8 113.4 . . ?
 C4 C8 C1 88.6(11) . . ?
 C4 C8 H8 113.4 . . ?
 C4 C8 C14 119.2(12) . . ?
 C14 C8 C1 105.7(11) . . ?
 C14 C8 H8 113.4 . . ?
 H10A C10 H10B 108.1 . . ?
 C12 C10 H10A 109.6 . . ?
 C12 C10 H10B 109.6 . . ?
 C12 C10 C14 110.4(12) . . ?
 C14 C10 H10A 109.6 . . ?
 C14 C10 H10B 109.6 . . ?
 N2 C12 C10 110.9(12) . . ?
 N2 C12 H12A 109.5 . . ?
 N2 C12 H12B 109.5 . . ?
 C10 C12 H12A 109.5 . . ?
 C10 C12 H12B 109.5 . . ?
 H12A C12 H12B 108.1 . . ?
 F2 C14 C8 100.9(11) . . ?
 F2 C14 C10 109.2(12) . . ?
 F2 C14 H14 111.3 . . ?
 C8 C14 C10 112.5(11) . . ?
 C8 C14 H14 111.3 . . ?
 C10 C14 H14 111.3 . . ?

loop_
  _geom_torsion_atom_site_label_1
  _geom_torsion_atom_site_label_2
  _geom_torsion_atom_site_label_3
  _geom_torsion_atom_site_label_4
  _geom_torsion
  _geom_torsion_site_symmetry_1
  _geom_torsion_site_symmetry_2
  _geom_torsion_site_symmetry_3
  _geom_torsion_site_symmetry_4
  _geom_torsion_publ_flag
 Eu1 O1 N1 O4 4.9(18) . . . . ?
 Eu1 O1 N1 O13 171.1(11) . . . . ?
 Eu1 O2 N3 O7 174.8(9) 1_565 . . . ?
 Eu1 O2 N3 O15 6.4(11) 1_565 . . . ?
 Eu1 O4 N1 O1 -5.0(18) . . . . ?
 Eu1 O4 N1 O13 -169.8(13) . . . . ?
 Eu1 O6 N1 O8 10.6(19) . . . . ?
 Eu1 O6 N1 O13 173.5(15) . . . . ?
 Eu1 O8 N1 O6 -10.2(18) . . . . ?
 Eu1 O8 N1 O13 -176.3(10) . . . . ?
 Eu1 O9 N3 O7 -177.1(9) 1_565 . . . ?
 Eu1 O9 N3 O17 2.8(15) 1_565 . . . ?
 Eu1 O10 N6 O12 166.4(9) . . . . ?
 Eu1 O10 N6 O14 6.9(14) . . . . ?
 Eu1 O14 N6 O10 -6.7(13) . . . . ?
 Eu1 O14 N6 O12 -158.4(18) . . . . ?
 Eu1 O15 N3 O2 -6.4(11) 1_565 . . . ?
 Eu1 O15 N3 O7 -173.9(10) 1_565 . . . ?
 Eu1 O17 N3 O7 177.1(11) 1_565 . . . ?
 Eu1 O17 N3 O9 -2.8(15) 1_565 . . . ?
 Rb1 O5 O16 N7 -111.4(15) . . . . ?
 Rb1 O5 N7 O11 -48.0(13) . . . . ?
 Rb1 O5 N7 O16 90(3) . . . . ?
 Rb1 O11 N7 O5 41.1(13) . . . . ?
 Rb1 O11 N7 O16 23.6(15) . . . . ?
 Rb1 O13 N1 O1 115(3) . . . . ?
 Rb1 O13 N1 O4 -79(3) . . . . ?
 Rb1 O13 N1 O6 30(4) . . . . ?
 Rb1 O13 N1 O8 -166(3) . . . . ?
 Rb1 O16 N7 O5 -69(3) . . . . ?
 Rb1 O16 N7 O11 -24.9(15) . . . . ?
 Rb1 O18 O19 N4 33.3(15) . . . . ?
 Rb1 O18 N4 O3 97.1(10) . . . . ?
 Rb1 O18 N4 O19 -154.4(12) . . . . ?
 O4 O4 N1 Eu1 -47(4) 2_655 . . . ?
 O4 O4 N1 O1 -52(5) 2_655 . . . ?
 O4 O4 N1 O13 144(4) 2_655 . . . ?
 O5 O16 N7 Rb1 69(3) . . . . ?
 O5 O16 N7 O11 44(4) . . . . ?
 O15 O14 N6 Eu1 -24(4) 1_545 . . . ?
 O15 O14 N6 O10 -31(5) 1_545 . . . ?
 O15 O14 N6 O12 177(3) 1_545 . . . ?
 O16 O5 N7 Rb1 -90(3) . . . . ?
 O16 O5 N7 O11 -138(3) . . . . ?
 O18 O19 N4 Rb1 -42(2) . . . . ?
 O18 O19 N4 O3 100.8(17) . . . . ?
 O19 O18 N4 Rb1 154.4(12) . . . . ?
 O19 O18 N4 O3 -108.5(14) . . . . ?
 N7 O5 O16 Rb1 111.4(15) . . . . ?
 N5 C2 C7 C9 22.5(16) . . . . ?
 N5 C3 C9 C7 32.5(15) . . . . ?
 N5 C3 C9 C13 -87.9(13) . . . . ?
 N5 C5 C11 C13 31.0(18) . . . . ?
 C2 N5 C3 C9 -21.7(17) . . . . ?
 C2 N5 C5 C11 64.2(15) . . . . ?
 C2 C7 C9 C3 -41(2) . . . . ?
 C2 C7 C9 C13 73.1(18) . . . . ?
 C3 N5 C2 C7 0.5(18) . . . . ?
 C3 N5 C5 C11 -68.5(13) . . . . ?
 C3 C9 C13 F1 -46.5(14) . . . . ?
 C3 C9 C13 C11 48.2(16) . . . . ?
 C5 N5 C2 C7 -114.6(13) . . . . ?
 C5 N5 C3 C9 100.8(12) . . . . ?
 C5 C11 C13 F1 74.0(15) . . . . ?
 C5 C11 C13 C9 -20.6(19) . . . . ?
 C7 C9 C13 F1 -164.0(13) . . . . ?
 C7 C9 C13 C11 -69.3(16) . . . . ?
 N2 C1 C8 C4 -50.6(13) . . . . ?
 N2 C1 C8 C14 69.5(14) . . . . ?
 C1 N2 C6 C4 -21.8(13) . . . . ?
 C1 N2 C12 C10 64.9(15) . . . . ?
 C1 C8 C14 F2 58.6(14) . . . . ?
 C1 C8 C14 C10 -57.7(14) . . . . ?
 C4 C8 C14 F2 156.0(13) . . . . ?
 C4 C8 C14 C10 39.7(17) . . . . ?
 C6 N2 C1 C8 50.1(14) . . . . ?
 C6 N2 C12 C10 -44.0(18) . . . . ?
 C6 C4 C8 C1 37.3(16) . . . . ?
 C6 C4 C8 C14 -70.0(18) . . . . ?
 C8 C4 C6 N2 -10.6(17) . . . . ?
 C12 N2 C1 C8 -72.7(14) . . . . ?
 C12 N2 C6 C4 88.5(14) . . . . ?
 C12 C10 C14 F2 -59.9(15) . . . . ?
 C12 C10 C14 C8 51.2(16) . . . . ?
 C14 C10 C12 N2 -55.6(16) . . . . ?

_shelx_res_file
;
TITL mo_S4F321_EuRb_0m_a.res in C2
    mo_s4f321_eurb_0m_a.res
    created by SHELXL-2018/3 at 19:52:58 on 18-Nov-2024
REM Old TITL Integration of S4F321_EuRb
REM SHELXT solution in C2: R1 0.197, Rweak 0.027, Alpha 0.063
REM <I/s> 0.000 for 0 systematic absences, Orientation as input
REM Flack x = 0.451 ( 0.015 ) from 1329 Parsons' quotients
REM Formula found by SHELXT: C60 Eu N14 O14 I
CELL 0.71073 24.1824 9.9071 9.9156 90 91.33 90
ZERR 2 0.0101 0.0033 0.0042 0 0.01 0
LATT -7
SYMM -X,+Y,-Z
SFAC C H Eu F N O Rb
UNIT 56 104 2 8 24 48 2
EQIV $1 1-X,+Y,-Z
EQIV $2 +X,1+Y,+Z
DFIX 1.5 C9 C7 C2 C7 N5 C2 N5 C5 C9 C3 N5 C3 C11 C5
ISOR 0.01 0.02 N1
DFIX 2.5 O2_$1 Eu1_$2
EADP N4 O11
SIMU 0.01 0.02 2 Eu1 > N7
EADP N7 O3
DANG 2.5 C11 C3
DELU 0.001 0.002 Eu1 N1
DANG 2.5 C11 C9
ISOR 0.01 0.02 O6
DANG 2.5 C3 C7
DANG 2.5 C2 C5
ISOR 0.01 0.02 O4 O1 O8 O13
ISOR 0.01 0.02 O19
DANG 3 C11 C7
DFIX 1.5 C8 C14 C14 C10 C12 C10 C12 N2 C6 N2 C6 C4 C8 C4 C8 C1 C1 N2
DANG 3 C11 C2
DFIX 1.35 O5 N7 O19 N4
DANG 2 C11 F1
DANG 2 C3 F1
DFIX 1.36 O15 N3 O2 N3
DANG 2 F1 C9
DANG 3 N2 C14
DANG 2.4 C1 C14
DANG 2.4 N2 C4
DANG 2.5 C12 C14
DANG 2.5 0.02 C4 C14
DANG 3 0.02 C10 C6
DANG 2.5 C6 C8
DANG 2.5 C8 C10
DFIX 1.36 F2 C14
SIMU 0.01 0.02 2 F2 > C14
SIMU 0.01 0.02 2 F1 > C13
ISOR 0.01 0.02 O7
DANG 2 H3b H5b
DFIX 1.5 0.01 C11 C13
EXYZ N4 O11
EXYZ N7 O3

L.S. 25
PLAN  2
SIZE 0.1 0.1 0.11
TEMP 26.85
CONF
CONN 20 Eu1
DAMP 2000
LIST 4
MORE -1
BOND $H
fmap 2
acta
TWIN -1 0 0 0 -1 0 0 0 -1 2
REM <olex2.extras>
REM <HklSrc "%.\\mo_S4F321_EuRb_0m_a.hkl">
REM </olex2.extras>

WGHT    0.190100
BASF   0.91785
FVAR       0.27439
EU1   3    0.500000    0.301980    0.000000    10.50000    0.04602    0.02678 =
         0.02860    0.00000    0.00503    0.00000
RB1   7    0.500000    0.807157    0.500000    10.50000    0.05671    0.01604 =
         0.02956    0.00000   -0.00057    0.00000
PART 2
O1    6    0.496159    0.388344    0.247351    10.50000    0.07320    0.06676 =
         0.06812   -0.00041    0.00200   -0.00098
O2    6    0.541830    1.134070    0.166717    10.50000    0.09228    0.02669 =
         0.04003    0.01529    0.00675    0.00497
O3    6    0.356304    0.720468    0.417791    10.50000    0.12153    0.13664 =
         0.10885    0.04813   -0.00256    0.04104
O4    6    0.491164    0.544407    0.086097    10.50000    0.07681    0.07256 =
         0.07122    0.00457    0.00708   -0.00030
PART 1
O5    6    0.383395    0.740915    0.537922    10.50000    0.11890    0.13286 =
         0.10703    0.04674   -0.00456    0.03851
O6    6    0.537574    0.464997    0.175913    10.50000    0.07363    0.06964 =
         0.06660    0.00087    0.00626    0.00098
PART 0
O7    6    0.497939    0.992581    0.291319    11.00000    0.10248    0.05026 =
         0.06306    0.04513    0.01678    0.00615
PART 1
O8    6    0.449233    0.456125    0.170599    10.50000    0.07671    0.07365 =
         0.07008    0.00097    0.00514    0.00089
O9    6    0.503668    1.062617    0.094428    10.50000    0.09252    0.02326 =
         0.04260    0.01444    0.00442    0.00242
PART 0
O10   6    0.405078    0.370139   -0.094764    11.00000    0.05640    0.05990 =
         0.07948    0.01978   -0.00236   -0.01431
PART 1
O11   6    0.380519    0.839835    0.375344    10.50000    0.11832    0.13054 =
         0.10642    0.04475   -0.00854    0.03665
PART 0
O12   6    0.326058    0.323205   -0.040866    11.00000    0.07198    0.12781 =
         0.13078    0.00484   -0.00938   -0.00320
O13   6    0.484634    0.594995    0.307327    11.00000    0.09745    0.09282 =
         0.09652   -0.01303    0.00490    0.00168
O14   6    0.400214    0.221420    0.053391    11.00000    0.06137    0.07559 =
         0.07898   -0.00103    0.00041   -0.01608
PART 2
O15   6    0.452884    1.131326    0.146255    10.50000    0.09798    0.02943 =
         0.04008    0.01572    0.00165    0.00367
PART 1
O16   6    0.391299    0.674384    0.546979    10.50000    0.12112    0.13495 =
         0.10667    0.04845   -0.00161    0.04251
O17   6    0.488468    1.209256    0.235601    10.50000    0.09839    0.02725 =
         0.04077    0.01161    0.00337    0.00257
PART 2
O18   6    0.382289    0.917227    0.485026    10.50000    0.11373    0.12879 =
         0.10597    0.04159   -0.01263    0.04141
O19   6    0.339391    0.939165    0.345397    10.50000    0.11225    0.12284 =
         0.10234    0.03385   -0.00883    0.03028
PART 0
N1    5    0.494391    0.513049    0.211508    11.00000    0.07347    0.07238 =
         0.06826   -0.00014    0.00501    0.00097
N3    5    0.496558    1.083130    0.215047    11.00000    0.09499    0.02478 =
         0.03918    0.02126    0.00555    0.00456
PART 2
N4    5    0.380519    0.839835    0.375344    10.50000    0.11832    0.13054 =
         0.10642    0.04475   -0.00854    0.03665
PART 0
N6    5    0.376448    0.282789   -0.026657    11.00000    0.05439    0.07497 =
         0.08499    0.01099   -0.00317    0.00254
PART 1
N7    5    0.356304    0.720468    0.417791    10.50000    0.12153    0.13664 =
         0.10885    0.04813   -0.00256    0.04104

PART 0
F1    4    0.273757    0.687422   -0.173869    11.00000    0.13514    0.28275 =
         0.21727   -0.05578    0.00838   -0.05619
N5    5    0.349786    0.793645    0.073341    11.00000    0.08734    0.24264 =
         0.13185   -0.06934   -0.00417   -0.03813
AFIX  13
H5    2    0.352449    0.776031    0.170529    11.00000   -1.20000
AFIX   0
C2    1    0.401081    0.869011    0.035867    11.00000    0.08100    0.24191 =
         0.14592   -0.06432    0.00559   -0.04735
AFIX  23
H2A   2    0.393766    0.959815    0.003507    11.00000   -1.20000
H2B   2    0.429416    0.869639    0.106728    11.00000   -1.20000
AFIX   0
C3    1    0.327830    0.666312    0.006533    11.00000    0.10211    0.24494 =
         0.14967   -0.05934   -0.00275   -0.03207
AFIX  23
H3A   2    0.339946    0.583799    0.050812    11.00000   -1.20000
H3B   2    0.288075    0.666358   -0.008929    11.00000   -1.20000
AFIX   0
C5    1    0.298025    0.875917    0.047846    11.00000    0.09181    0.25382 =
         0.14149   -0.06633   -0.01539   -0.03134
AFIX  23
H5A   2    0.300103    0.962839    0.092705    11.00000   -1.20000
H5B   2    0.265248    0.828296    0.076312    11.00000   -1.20000
AFIX   0
C7    1    0.411939    0.773424   -0.071283    11.00000    0.08547    0.24595 =
         0.15381   -0.06492    0.00095   -0.04127
AFIX  23
H7A   2    0.439122    0.707987   -0.039701    11.00000   -1.20000
H7B   2    0.427143    0.820896   -0.147532    11.00000   -1.20000
AFIX   0
C9    1    0.360018    0.701354   -0.115527    11.00000    0.09457    0.24748 =
         0.15299   -0.06269   -0.00709   -0.03363
AFIX  13
H9    2    0.368983    0.619653   -0.166272    11.00000   -1.20000
AFIX   0
C11   1    0.299031    0.890808   -0.105256    11.00000    0.09792    0.26190 =
         0.15572   -0.06496   -0.01755   -0.02208
AFIX  23
H11A  2    0.261065    0.903651   -0.136325    11.00000   -1.20000
H11B  2    0.318509    0.974071   -0.123995    11.00000   -1.20000
AFIX   0
C13   1    0.323241    0.784573   -0.191880    11.00000    0.09797    0.25923 =
         0.15571   -0.06856   -0.01467   -0.03652
AFIX  13
H13   2    0.333416    0.809084   -0.283786    11.00000   -1.20000
AFIX   0

F2    4    0.274123    0.121196    0.401962    11.00000    0.14017    0.24024 =
         0.16493   -0.00754   -0.05194   -0.08631
N2    5    0.351759    0.394578    0.486974    11.00000    0.12221    0.17883 =
         0.09647    0.01068   -0.01111   -0.05895
AFIX  13
H2    2    0.349275    0.489683    0.460336    11.00000   -1.20000
AFIX   0
C1    1    0.349188    0.300838    0.363691    11.00000    0.11934    0.17222 =
         0.08592    0.02156   -0.01635   -0.06490
AFIX  23
H1A   2    0.312036    0.299535    0.324670    11.00000   -1.20000
H1B   2    0.374363    0.332163    0.295669    11.00000   -1.20000
AFIX   0
C4    1    0.414882    0.221151    0.476814    11.00000    0.12140    0.18950 =
         0.10349    0.01078   -0.02544   -0.05100
AFIX  23
H4A   2    0.443340    0.227604    0.409767    11.00000   -1.20000
H4B   2    0.428114    0.158266    0.545249    11.00000   -1.20000
AFIX   0
C6    1    0.409593    0.359443    0.543212    11.00000    0.11479    0.18502 =
         0.09315    0.00410   -0.03666   -0.05601
AFIX  23
H6A   2    0.437516    0.422310    0.513338    11.00000   -1.20000
H6B   2    0.410643    0.353826    0.640903    11.00000   -1.20000
AFIX   0
C8    1    0.365497    0.161699    0.411051    11.00000    0.12168    0.18088 =
         0.09625    0.01744   -0.01655   -0.06146
AFIX  13
H8    2    0.374068    0.099870    0.337271    11.00000   -1.20000
AFIX   0
C10   1    0.308389    0.208191    0.613390    11.00000    0.12572    0.18707 =
         0.10433    0.01402    0.00074   -0.05337
AFIX  23
H10A  2    0.274954    0.180416    0.657914    11.00000   -1.20000
H10B  2    0.338885    0.202980    0.678473    11.00000   -1.20000
AFIX   0
C12   1    0.302072    0.351508    0.564183    11.00000    0.12580    0.18441 =
         0.10863    0.01239    0.00533   -0.04805
AFIX  23
H12A  2    0.269232    0.358501    0.506558    11.00000   -1.20000
H12B  2    0.297469    0.411161    0.640679    11.00000   -1.20000
AFIX   0
C14   1    0.319230    0.114053    0.495964    11.00000    0.12136    0.18724 =
         0.10555    0.00522   -0.01445   -0.06809
AFIX  13
H14   2    0.325433    0.021260    0.527036    11.00000   -1.20000
AFIX   0
HKLF 4




REM  mo_S4F321_EuRb_0m_a.res in C2
REM wR2 = 0.275667, GooF = S = 1.03274, Restrained GooF = 1.02939 for all data
REM R1 = 0.092835 for 3522 Fo > 4sig(Fo) and 0.118169 for all 4884 data
REM 372 parameters refined using 450 restraints

END

WGHT      0.1902      0.0000

REM Highest difference peak  2.524,  deepest hole -2.860,  1-sigma level  0.275
Q1    1   0.5139  0.3043  0.1474  11.00000  0.05    1.40
Q2    1   0.3520  0.9290  0.0239  11.00000  0.05    1.26
;
_shelx_res_checksum                56510
_shelx_hkl_file
;
  -4   0   0  429.83   59.52
   4   0   0  499.41   61.40
   4   0   0  440.68   59.43
  -4   0   0  436.55   60.95
  -6   0   0 9999.00 1278.63
   8   0   0 6935.99  987.75
  -8   0   0 8240.01  997.34
  10   0   0 6187.84  742.17
 -10   0   0 4799.17  716.79
  12   0   0 2568.01  321.11
 -12   0   0 2488.21  317.36
 -12   0   0 2283.43  319.79
  14   0   0 1088.54  147.13
 -14   0   0 1218.18  141.36
 -14   0   0  850.94  143.64
  14   0   0 1083.02  142.05
 -14   0   0  931.47  141.27
  16   0   0  821.39  112.63
 -16   0   0  753.14  100.46
 -16   0   0  813.24  110.22
 -16   0   0  693.92  115.05
  16   0   0  901.61  119.88
 -16   0   0  725.01  112.25
 -18   0   0  565.06   95.66
 -18   0   0  594.85  100.26
  18   0   0  670.44  102.40
 -18   0   0  620.74   81.43
 -18   0   0  587.42   92.11
  18   0   0  692.38   97.43
 -20   0   0  532.13   76.22
 -20   0   0  521.47   93.13
 -20   0   0  595.77   89.44
  20   0   0  649.86   95.00
  20   0   0  721.68  104.03
 -20   0   0  576.81   97.75
 -22   0   0  516.09   83.55
 -22   0   0  452.65   69.47
 -22   0   0  641.37   90.59
  22   0   0  573.66   99.11
  22   0   0  587.97   91.45
  24   0   0  255.13   67.93
 -24   0   0  226.64   55.05
 -24   0   0  198.54   32.61
  24   0   0  292.26   64.74
 -26   0   0   77.51   18.34
 -26   0   0   76.80   33.93
  26   0   0   74.10   44.42
  26   0   0  117.31   47.26
 -28   0   0   19.57   25.18
 -28   0   0   40.18   12.96
  28   0   0   21.58   43.04
  28   0   0    4.67   33.83
  30   0   0   51.80   42.68
  30   0   0   36.14   47.69
 -30   0   0   26.90   30.99
 -30   0   0   40.87   14.09
  -1  -1   0  556.84   79.05
  -1   1   0  689.99   80.04
   1   1   0  517.57   80.75
   3  -1   0  662.64   84.05
  -3  -1   0  585.81   83.45
  -3   1   0  728.38   85.93
   5  -1   0  199.64   27.56
   5  -1   0  143.26   23.84
   5  -1   0  158.78   24.05
  -5  -1   0  117.26   22.55
  -5  -1   0  174.32   26.19
  -5  -1   0  147.86   24.03
   5   1   0  172.40   26.02
   5   1   0  135.54   23.43
  -5   1   0  171.19   24.38
  -5   1   0  164.95   26.50
  -5   1   0  121.46   23.15
   7  -1   0  108.22   25.93
  -7  -1   0   92.32   19.79
  -7  -1   0  103.00   21.79
  -7  -1   0   90.69   23.71
   7  -1   0   91.89   19.61
   7  -1   0  116.37   22.77
  -7   1   0   82.41   20.33
  -7   1   0   55.14   17.58
   7   1   0   84.31   19.13
   7   1   0   76.79   22.84
   7   1   0   72.85   19.20
  -7   1   0   84.48   23.07
  -9  -1   0   92.69   24.48
   9  -1   0  162.38   34.45
   9  -1   0  108.90   25.16
  -9  -1   0  109.28   25.94
   9  -1   0   98.01   24.71
  -9  -1   0  125.95   31.12
  -9   1   0  136.08   27.96
   9   1   0  199.25   37.47
   9   1   0  124.10   27.49
  -9   1   0  163.52   36.47
  -9   1   0  139.76   28.43
   9   1   0  146.29   27.75
 -11  -1   0  263.70   49.65
  11  -1   0  397.63   58.33
 -11  -1   0  346.88   53.09
  11  -1   0  357.96   52.91
  11  -1   0  370.95   53.37
 -11  -1   0  372.60   56.80
  11   1   0  272.79   51.15
 -11   1   0  371.68   53.59
 -11   1   0  370.89   57.04
 -11   1   0  248.82   49.54
  11   1   0  385.20   52.77
  11   1   0  401.20   58.75
  13  -1   0   99.44   27.65
 -13  -1   0  114.53   33.77
  13  -1   0  129.48   31.10
  13  -1   0  139.69   36.31
 -13  -1   0   97.52   28.06
 -13  -1   0  121.97   31.26
 -13   1   0  102.82   34.65
  13   1   0  108.29   28.72
  13   1   0  145.14   38.95
 -13   1   0   99.77   26.67
 -13   1   0   71.08   17.88
  13   1   0  135.13   30.28
 -13   1   0  160.96   35.42
 -15  -1   0    7.45   17.28
 -15  -1   0   20.23   23.25
  15  -1   0   43.44   22.85
 -15  -1   0   53.93   22.85
  15  -1   0   62.38   24.35
  15  -1   0   92.00   34.97
 -15   1   0   57.32   26.35
 -15   1   0   46.61   22.53
  15   1   0   65.81   31.30
  15   1   0   24.66   21.67
  15   1   0   48.89   24.46
 -15   1   0   21.40   10.39
 -15   1   0   35.67   19.95
  17  -1   0   92.88   34.38
 -17  -1   0   63.08   26.14
 -17  -1   0  126.79   37.97
  17  -1   0   45.68   26.46
  17  -1   0   63.61   29.77
 -17  -1   0   44.93   24.02
  17   1   0  114.03   41.50
 -17   1   0   70.45   33.47
 -17   1   0   47.73   24.44
 -17   1   0  118.36   34.59
  17   1   0   75.41   30.89
 -17   1   0   58.83   16.17
  17   1   0   81.59   31.00
  19  -1   0  121.73   37.95
  19  -1   0   91.18   41.12
  19  -1   0   97.25   32.35
 -19  -1   0   94.86   35.54
 -19  -1   0   68.33   31.39
 -19  -1   0   52.36   13.28
 -19  -1   0   42.30   26.28
  19   1   0   88.98   40.10
  19   1   0   35.32   26.61
 -19   1   0   61.12   27.60
 -19   1   0   35.73   14.52
  19   1   0  106.18   35.53
 -19   1   0   78.57   32.08
 -19   1   0  113.64   38.42
 -21  -1   0   80.27   34.87
  21  -1   0   61.44   31.76
 -21  -1   0   36.41   27.72
 -21  -1   0   64.16   14.83
  21  -1   0   69.06   38.49
 -21   1   0   44.86   14.93
  21   1   0   54.78   33.74
 -21   1   0  101.31   38.63
 -21   1   0   51.30   26.98
 -21   1   0  145.13   39.92
  21   1   0   15.88   30.37
 -23  -1   0   49.70   13.43
  23  -1   0  127.84   51.94
 -23  -1   0  137.54   42.13
 -23  -1   0   30.25   26.96
  23  -1   0   51.96   35.63
 -23   1   0   60.98   16.12
  23   1   0   40.79   35.35
  23   1   0   56.29   41.65
 -23   1   0   25.56   25.56
  25  -1   0   32.18   40.08
 -25  -1   0   14.01    9.58
 -25  -1   0   31.36   26.95
  25  -1   0    0.55   27.81
  25   1   0   17.07   29.84
 -25   1   0    2.77    9.90
 -25   1   0    7.94   23.17
  25   1   0   40.33   35.79
 -27  -1   0    4.88    8.92
 -27  -1   0    5.78   22.43
  27  -1   0   11.91   36.52
  27  -1   0    1.74   28.03
 -27   1   0    1.33   10.06
 -27   1   0    0.34   23.60
  27   1   0   29.91   42.27
  27   1   0   -3.03   32.22
  29  -1   0   -1.04   31.95
 -29  -1   0   -2.43   23.75
 -29  -1   0   -4.78    8.83
  29  -1   0    3.92   37.94
 -29   1   0  -12.46   22.76
  29   1   0   28.78   45.48
 -29   1   0   10.24   11.77
  29   1   0   19.85   35.90
   0   2   0 6858.98  867.56
  -2  -2   0  382.91   48.45
  -2  -2   0  434.76   47.95
  -2  -2   0  324.34   47.83
   2   2   0  338.66   47.69
  -4  -2   0  426.02   51.53
  -4  -2   0  343.74   48.53
  -4  -2   0  425.90   50.55
  -4  -2   0  440.10   52.05
   4   2   0  357.15   50.51
   4   2   0  312.81   50.65
   6  -2   0  360.74   49.72
   6  -2   0  453.15   54.43
   6  -2   0  371.90   49.62
  -6   2   0  349.79   50.00
  -6   2   0  294.82   48.64
  -6   2   0  311.89   51.56
  -8  -2   0 1125.92  139.79
  -8  -2   0  974.12  140.35
   8  -2   0 1167.95  145.12
   8  -2   0 1246.41  141.82
  -8  -2   0 1018.58  142.38
  -8   2   0  894.50  142.32
   8   2   0  965.30  140.12
   8   2   0 1245.19  140.13
   8   2   0 1019.83  141.83
  -8   2   0 1038.37  141.06
  10  -2   0 1807.24  191.97
 -10  -2   0 1384.56  183.03
 -10  -2   0 1290.42  184.11
 -10  -2   0 1284.76  186.36
  10   2   0 1354.95  186.40
  10   2   0 1326.89  184.12
 -10   2   0 1526.06  188.95
 -12  -2   0  866.80  112.81
  12  -2   0  751.90  107.87
 -12  -2   0  955.06  110.50
  12  -2   0  763.57  113.01
 -12   2   0  666.82  107.65
  12   2   0  906.49  113.04
 -12   2   0  701.80  101.42
 -12   2   0  737.44  106.74
  14  -2   0  556.79   77.93
 -14  -2   0  365.56   67.88
  14  -2   0  516.52   70.59
 -14  -2   0  345.66   65.23
 -14  -2   0  391.03   71.27
 -14   2   0  559.68   69.53
 -14   2   0  503.96   60.99
  14   2   0  475.18   68.37
  14   2   0  378.20   71.28
 -14   2   0  399.43   72.07
 -14   2   0  412.78   69.26
  16  -2   0  351.09   69.30
 -16  -2   0  358.61   63.14
 -16  -2   0  366.73   66.42
  16  -2   0  367.65   63.45
 -16  -2   0  434.23   61.69
  16  -2   0  493.98   67.88
  16   2   0  472.03   66.18
 -16   2   0  344.26   63.16
 -16   2   0  308.34   73.07
 -16   2   0  285.71   59.11
  16   2   0  427.19   69.54
 -16   2   0  368.06   52.68
 -18  -2   0  203.45   51.64
  18  -2   0  252.06   61.31
 -18  -2   0  157.04   44.97
  18  -2   0  383.19   56.43
  18  -2   0  254.25   50.06
 -18  -2   0  210.30   54.83
 -18   2   0  226.15   60.46
 -18   2   0  278.76   58.44
  18   2   0  193.81   48.19
  18   2   0  172.63   52.81
 -18   2   0  220.64   47.90
 -18   2   0  208.96   33.83
  20  -2   0  379.38   68.37
 -20  -2   0  489.86   91.87
 -20  -2   0  281.49   54.44
 -20  -2   0  295.59   60.39
 -20  -2   0  268.31   39.86
  20  -2   0  281.58   64.12
  20  -2   0  364.41   82.57
 -20   2   0  255.72   58.90
 -20   2   0  227.56   63.22
  20   2   0  428.82   81.57
 -20   2   0  344.60   71.86
  20   2   0  345.11   61.82
 -22  -2   0  203.16   29.46
 -22  -2   0  215.33   51.51
  22  -2   0  209.18   55.52
  22  -2   0  129.84   53.62
 -22  -2   0  234.00   58.23
 -22   2   0  151.69   45.40
  22   2   0  344.44   64.83
 -22   2   0  173.98   54.30
  22   2   0  309.14   69.64
 -24  -2   0   94.91   18.36
 -24  -2   0  113.10   36.37
  24  -2   0  221.19   65.77
  24  -2   0  189.18   52.36
  24   2   0  177.10   58.06
  24   2   0  125.35   44.67
 -24   2   0  151.57   43.94
 -24   2   0  116.23   24.15
 -26  -2   0   49.53   12.06
  26  -2   0   24.69   33.45
 -26  -2   0   11.32   23.32
  26  -2   0   88.69   48.25
  26   2   0   53.26   35.65
 -26   2   0   32.55   28.22
 -26   2   0   49.72   17.31
  26   2   0   33.94   38.93
 -28  -2   0   48.97   11.60
  28  -2   0  -21.32   31.65
 -28  -2   0   14.97   26.21
  28  -2   0   17.27   33.64
 -28   2   0   -3.74   24.89
  28   2   0   80.38   43.57
  28   2   0   54.24   45.48
 -28   2   0   14.60   13.63
  -1  -3   0   40.02    9.17
  -1  -3   0   44.20    8.56
   1  -3   0   73.00   13.27
   1  -3   0   54.77   11.59
   1   3   0   39.40    9.60
  -1   3   0   32.89   10.55
  -1   3   0   38.11   10.52
  -3  -3   0   69.87   13.65
  -3  -3   0   53.96   11.75
   3  -3   0   75.81   13.14
   3  -3   0   66.81   14.18
  -3  -3   0   89.62   13.59
   3  -3   0   96.36   18.73
  -3  -3   0   63.44   12.37
   3  -3   0  103.63   15.63
  -3   3   0   83.37   16.62
   3   3   0   71.48   12.45
  -3   3   0   74.07   15.03
  -5  -3   0  136.44   21.81
  -5  -3   0  145.92   22.21
   5  -3   0  172.16   27.33
   5  -3   0  141.51   21.67
  -5  -3   0  113.79   20.27
  -5  -3   0  107.56   17.68
   5   3   0  148.22   19.75
  -5   3   0  110.27   19.97
  -5   3   0  126.21   21.90
   5   3   0  118.73   17.93
   5   3   0  129.03   21.80
  -5   3   0  110.93   19.85
   5   3   0  121.11   18.03
   7  -3   0  314.55   43.31
  -7  -3   0  205.17   34.78
  -7  -3   0  301.37   39.02
   7  -3   0  243.31   36.46
  -7  -3   0  277.88   37.36
  -7  -3   0  196.53   30.94
  -7   3   0  188.99   33.47
   7   3   0  254.47   37.20
  -7   3   0  227.96   35.76
  -7   3   0  240.95   38.64
   7   3   0  253.92   36.02
  -9  -3   0  222.27   40.31
  -9  -3   0  133.25   25.60
  -9  -3   0  176.55   28.58
  -9  -3   0  101.85   18.80
   9  -3   0  169.45   29.98
   9  -3   0  152.15   27.88
  -9   3   0  174.76   31.10
   9   3   0  133.96   29.90
  -9   3   0  227.51   42.51
  -9   3   0  146.81   28.57
  -9   3   0  105.15   22.12
   9   3   0  191.01   34.22
 -11  -3   0  205.04   30.90
  11  -3   0  331.11   49.46
  11  -3   0  227.77   41.01
  11  -3   0  265.90   41.97
 -11  -3   0  292.59   44.90
 -11  -3   0  208.37   38.25
 -11  -3   0  287.93   42.17
 -11   3   0  172.59   33.85
  11   3   0  192.10   40.71
 -11   3   0  255.30   45.06
  11   3   0  255.59   42.45
 -11   3   0  315.68   43.88
 -13  -3   0  133.83   37.70
  13  -3   0  203.96   48.81
 -13  -3   0   66.82   24.88
  13  -3   0  117.16   31.09
 -13  -3   0  125.06   31.58
  13  -3   0  101.08   30.23
 -13   3   0  105.83   23.31
  13   3   0  133.91   36.91
 -13   3   0  156.07   44.22
 -13   3   0   81.22   27.82
 -13   3   0  200.30   40.79
  13   3   0  101.34   29.72
  15  -3   0   55.34   32.15
 -15  -3   0   50.68   22.07
  15  -3   0  106.45   31.29
 -15  -3   0   72.40   31.46
  15  -3   0   83.96   28.92
 -15  -3   0   87.35   29.76
 -15   3   0  103.98   32.94
  15   3   0   52.10   26.09
  15   3   0   53.73   25.03
 -15   3   0   27.89   23.09
 -15   3   0   79.62   35.62
 -15   3   0   29.41   13.84
 -17  -3   0   26.98   21.88
  17  -3   0   67.93   30.47
  17  -3   0   81.43   32.15
  17  -3   0  116.91   41.43
 -17  -3   0  106.51   33.98
 -17  -3   0   86.60   34.03
 -17   3   0   90.50   43.03
  17   3   0  126.34   41.36
 -17   3   0   36.60   26.47
  17   3   0   81.30   31.01
 -17   3   0   40.29   16.04
 -17   3   0   83.74   32.14
 -19  -3   0   80.01   34.60
  19  -3   0   57.52   31.74
  19  -3   0   34.72   27.54
 -19  -3   0   45.19   24.11
  19  -3   0   70.47   36.54
 -19  -3   0   61.37   27.23
 -19   3   0  102.46   31.22
 -19   3   0   25.77   33.96
 -19   3   0   30.78   25.40
 -19   3   0   19.81   14.24
  19   3   0   20.90   25.37
  19   3   0   47.61   33.09
 -21  -3   0    1.68    5.52
  21  -3   0  -21.33   22.87
  21  -3   0    6.51   24.97
 -21  -3   0    2.38   22.22
 -21  -3   0    0.12   17.95
  21   3   0    5.21   21.23
  21   3   0   13.53   29.84
  21   3   0   14.57   26.22
 -21   3   0  -12.28   28.50
 -21   3   0    1.08   10.53
 -21   3   0  -14.28   18.09
 -23  -3   0   22.43   26.94
  23  -3   0    9.42   28.10
  23  -3   0   -0.83   28.85
 -23  -3   0    0.59   18.53
 -23  -3   0   12.24    6.13
 -23   3   0   10.41   13.19
 -23   3   0  -28.47   17.29
 -23   3   0  -10.85   30.58
  23   3   0   34.03   31.51
  23   3   0   12.66   31.87
 -25  -3   0   -1.96   19.03
  25  -3   0    7.55   29.07
 -25  -3   0    8.42    6.24
  25  -3   0   27.16   35.55
 -25   3   0   -2.95   12.59
 -25   3   0    4.37   25.75
  25   3   0    9.28   32.46
  25   3   0   23.77   31.92
  27  -3   0   10.55   33.82
  27  -3   0  -15.62   29.29
 -27  -3   0   -1.59    5.50
 -27  -3   0   20.83   23.94
 -27   3   0    2.73   12.86
  27   3   0   21.94   33.38
  27   3   0   25.06   36.54
 -27   3   0    0.81   25.59
  29  -3   0   -2.94   35.34
 -29  -3   0    2.80   23.08
  29  -3   0  -21.29   35.63
 -29   3   0   -5.60   11.41
  29   3   0   59.53   48.21
 -29   3   0    2.85   27.77
  29   3   0  -23.25   29.50
   0  -4   0 1324.33  195.25
   0  -4   0 1702.27  193.10
  -2   4   0 1060.57  137.57
   4  -4   0 2145.21  262.28
  -4  -4   0 2141.88  259.52
  -4   4   0 1837.62  261.24
  -6  -4   0 2461.58  285.91
   6  -4   0 2128.95  289.27
  -6  -4   0 2209.70  285.83
   6   4   0 2128.00  282.03
  -8  -4   0 1668.26  225.89
  -8  -4   0 1534.59  226.40
  -8  -4   0 1879.24  225.40
  -8  -4   0 1620.00  220.96
   8  -4   0 2023.83  227.49
   8  -4   0 1843.31  231.96
  -8   4   0 1572.57  225.40
  -8   4   0 1733.26  228.12
   8   4   0 1743.04  226.32
   8   4   0 1590.74  223.57
   8   4   0 1920.00  222.45
  -8   4   0 1872.86  224.71
 -10  -4   0 1833.17  249.78
 -10  -4   0 2044.08  249.13
  10  -4   0 1819.05  255.26
  10  -4   0 2091.34  251.00
 -10  -4   0 1682.68  250.79
 -10  -4   0 1841.53  243.05
  10   4   0 2113.13  251.17
 -10   4   0 2057.57  247.19
 -10   4   0 1826.18  248.33
 -10   4   0 1652.83  250.50
  10   4   0 2236.58  246.60
  10   4   0 1851.26  248.60
  12  -4   0 1081.86  156.04
 -12  -4   0 1303.34  147.26
  12  -4   0 1129.70  162.46
 -12  -4   0 1242.69  157.25
 -12  -4   0 1146.78  158.73
  12   4   0 1220.85  156.44
 -12   4   0  950.44  150.33
 -14  -4   0  808.99  119.77
 -14  -4   0  877.54  118.21
 -14  -4   0  935.73  116.18
  14  -4   0  803.28  117.27
 -14  -4   0  864.58  105.47
  14  -4   0  899.12  126.04
 -14   4   0  688.44  118.24
 -14   4   0  681.15  113.81
 -14   4   0  693.91  109.26
  14   4   0  984.41  119.75
 -14   4   0  739.53  117.91
  14   4   0 1029.06  120.30
 -16  -4   0  495.32   87.90
 -16  -4   0  492.51   81.36
 -16  -4   0  556.23   85.83
 -16  -4   0  479.85   70.20
  16  -4   0  697.03   97.83
 -16   4   0  517.62   88.68
 -16   4   0  598.28   84.16
 -16   4   0  580.58   76.22
  16   4   0  482.69   84.74
  16   4   0  631.67   87.93
 -16   4   0  498.71   85.95
  16   4   0  705.31   81.91
 -18  -4   0  289.02   64.84
  18  -4   0  542.75   76.26
  18  -4   0  568.13   86.33
 -18  -4   0  349.25   69.77
 -18  -4   0  452.31   74.10
 -18   4   0  470.20   73.23
  18   4   0  346.21   71.24
 -18   4   0  449.35   75.88
  18   4   0  396.72   66.05
  18   4   0  372.66   79.34
 -18   4   0  458.12   60.88
 -18   4   0  454.33   70.84
  20  -4   0  254.03   56.79
 -20  -4   0  142.28   42.88
 -20  -4   0  257.14   57.22
  20  -4   0  229.68   64.67
 -20   4   0  161.65   43.90
 -20   4   0  165.04   36.14
  20   4   0  175.53   51.12
  20   4   0  212.63   52.03
  20   4   0  281.66   46.60
 -20   4   0  216.78   61.89
 -22  -4   0  161.96   42.64
  22  -4   0  160.74   57.18
 -22  -4   0  250.59   54.72
  22  -4   0  165.62   49.46
  22   4   0  208.30   52.01
 -22   4   0  127.57   31.93
 -22   4   0  232.88   66.46
  22   4   0  127.54   45.13
 -22   4   0  118.77   39.29
  24  -4   0  173.86   51.99
 -24  -4   0   91.32   38.35
 -24  -4   0  160.91   45.86
  24  -4   0  132.82   56.98
 -24   4   0  147.68   42.97
 -24   4   0  139.90   30.70
  24   4   0  162.01   48.77
  24   4   0  125.21   48.45
 -26  -4   0   66.88   32.12
  26  -4   0   76.94   54.13
  26  -4   0   79.08   41.15
  26   4   0   54.07   38.96
 -26   4   0   55.45   36.85
 -26   4   0   56.99   19.97
  26   4   0   48.62   36.36
 -28  -4   0    7.11   24.27
  28  -4   0   87.64   56.26
  28  -4   0   47.59   42.42
 -28   4   0   21.13   30.50
  28   4   0    9.35   37.05
 -28   4   0   17.56   14.99
  28   4   0   35.47   37.40
  -1  -5   0   40.23   15.72
   1  -5   0  117.97   19.68
   1  -5   0   65.37   16.31
  -1  -5   0   58.19   15.00
  -1  -5   0   75.34   13.40
   1  -5   0   73.10   13.67
  -1   5   0   62.39   16.89
   1   5   0   44.25   14.61
   3  -5   0   29.38   10.56
  -3  -5   0   10.92    7.75
   3  -5   0    8.78    9.61
   3  -5   0   19.36    7.39
   3  -5   0   25.95   12.70
  -3  -5   0    7.61    7.62
  -3  -5   0   18.28    8.81
  -3  -5   0   26.49    9.16
  -3   5   0   18.28   11.34
  -3   5   0   11.41    9.35
   3   5   0   14.32    9.68
   3   5   0   17.25    7.84
  -5  -5   0  219.55   28.46
  -5  -5   0  187.27   27.57
  -5  -5   0  110.69   23.72
  -5  -5   0  154.21   26.59
   5  -5   0  240.98   42.09
   5  -5   0  165.21   25.81
  -5   5   0  178.87   30.68
   5   5   0  163.09   25.29
  -5   5   0  133.20   27.10
   7  -5   0   94.52   29.14
  -7  -5   0   95.84   22.61
  -7  -5   0   53.16   17.57
  -7  -5   0   76.68   19.28
  -7  -5   0   44.95   12.01
   7  -5   0   75.77   18.75
   7  -5   0   90.57   21.42
  -7   5   0   61.18   22.21
   7   5   0   53.42   17.34
  -7   5   0   42.92   17.45
   7   5   0   49.32   13.53
   9  -5   0   63.63   19.83
  -9  -5   0   79.63   21.83
   9  -5   0   81.00   22.14
  -9  -5   0  103.43   27.10
  -9  -5   0   46.94   11.23
  -9  -5   0   56.92   18.76
   9  -5   0   85.16   31.35
  -9   5   0   35.12   19.85
  -9   5   0   44.49   17.49
   9   5   0   34.44   10.35
   9   5   0   60.66   20.16
   9   5   0   53.98   13.65
 -11  -5   0    2.88    5.67
 -11  -5   0   -0.69   12.95
  11  -5   0    5.37   14.83
  11  -5   0   -4.16   17.33
 -11  -5   0    2.30   13.61
 -11  -5   0   -0.19   13.34
  11  -5   0   -8.60   13.48
  11   5   0    1.17   10.96
  11   5   0   -0.37    7.90
 -11   5   0    6.81   15.14
 -11   5   0    9.92   11.43
 -11   5   0   -2.98   12.48
 -11   5   0   -7.14   10.66
  11   5   0   -3.15   13.71
 -13  -5   0   23.22    7.72
  13  -5   0   41.28   21.92
  13  -5   0   68.29   32.84
  13  -5   0   16.11   20.09
 -13  -5   0   36.38   20.02
 -13  -5   0   14.84   20.87
 -13  -5   0   12.04   17.28
  13   5   0   23.08   12.17
 -13   5   0    1.33   15.17
 -13   5   0   71.03   27.11
 -13   5   0   13.71   14.89
 -13   5   0   33.67   20.93
  13   5   0   10.74   18.98
  13   5   0   17.53   16.27
 -15  -5   0   47.76   24.37
  15  -5   0   63.83   27.55
  15  -5   0   71.21   36.62
 -15  -5   0   47.37   10.21
 -15  -5   0  140.91   40.32
 -15  -5   0  103.67   30.79
  15  -5   0   68.69   31.49
 -15   5   0   36.78   18.02
 -15   5   0   40.62   21.08
 -15   5   0   71.08   31.48
 -15   5   0   83.39   32.18
  15   5   0   74.53   28.10
  15   5   0   33.23   16.90
  15   5   0   72.75   29.43
  17  -5   0  123.01   37.39
 -17  -5   0   56.00   11.56
  17  -5   0  134.08   47.16
 -17  -5   0   74.78   28.41
  17  -5   0  111.45   36.33
 -17  -5   0  209.22   52.37
  17   5   0   83.34   24.68
  17   5   0   83.35   31.22
 -17   5   0  134.51   43.73
 -17   5   0   77.38   29.83
  17   5   0  106.49   33.67
 -17   5   0  164.65   40.76
 -17   5   0   58.07   21.38
  19  -5   0   21.06   32.14
 -19  -5   0   47.55   35.21
  19  -5   0   26.67   31.13
 -19  -5   0   21.41   22.81
  19  -5   0   33.78   29.19
 -19  -5   0   55.60   28.26
  19   5   0   40.18   28.85
  19   5   0   18.77   25.66
 -19   5   0   51.04   38.52
 -19   5   0   14.83   14.72
 -19   5   0    8.24   22.83
  19   5   0   11.01   18.85
  21  -5   0   40.90   31.60
  21  -5   0   12.15   37.54
 -21  -5   0   -0.15   19.57
 -21  -5   0   26.79   30.31
  21   5   0   35.31   21.28
 -21   5   0   -6.73   20.11
 -21   5   0    4.37   13.63
  21   5   0   20.04   26.70
  21   5   0   30.41   29.80
 -21   5   0   12.64   34.40
 -23  -5   0    8.09   28.31
  23  -5   0   38.77   44.55
 -23  -5   0   19.27   23.68
  23  -5   0   45.31   33.64
  23   5   0   10.37   31.02
 -23   5   0   15.09   38.37
  23   5   0   15.06   29.90
  23   5   0   16.54   22.42
 -23   5   0   39.35   29.01
 -23   5   0   14.04   16.77
  25  -5   0   43.67   46.78
  25  -5   0   10.89   32.28
 -25  -5   0   13.44   24.62
 -25   5   0   -6.06   25.30
  25   5   0   12.42   30.83
  25   5   0   15.54   32.81
 -25   5   0   21.46   17.22
 -27  -5   0   -1.57   24.38
  27  -5   0   21.08   37.89
  27  -5   0   89.07   47.69
  27   5   0    8.94   35.16
 -27   5   0    1.48   15.40
  27   5   0   -2.15   29.79
 -27   5   0   18.50   30.61
   0  -6   0 1000.30  142.71
   0  -6   0 1075.65  139.79
   0  -6   0 1205.80  143.14
   0   6   0 1124.99  143.77
   2  -6   0  576.78   86.30
   2  -6   0  689.25   85.06
   2  -6   0  668.93   87.81
  -2   6   0  664.20   88.67
  -4  -6   0 1104.38  125.62
  -4  -6   0  982.28  124.42
   4  -6   0  988.33  125.04
   4  -6   0  843.37  128.27
  -4  -6   0  946.23  124.56
  -4  -6   0  860.99  124.53
   4   6   0 1004.28  125.33
  -4   6   0  894.08  126.67
  -6  -6   0  756.53   94.05
  -6  -6   0  750.06   93.87
  -6  -6   0  640.22   90.69
  -6  -6   0  719.08   94.28
  -6   6   0  619.55   95.17
   6   6   0  681.32   91.57
  -8  -6   0  255.84   44.29
  -8  -6   0  272.12   44.47
  -8  -6   0  325.41   45.44
  -8  -6   0  239.47   38.53
  -8   6   0  356.66   50.42
   8   6   0  261.13   42.95
 -10  -6   0  283.39   43.51
 -10  -6   0  239.16   48.72
  10  -6   0  330.23   44.83
  10  -6   0  230.50   55.64
 -10  -6   0  250.40   42.98
  10  -6   0  244.98   43.19
 -10  -6   0  265.92   34.60
 -10   6   0  234.85   39.82
 -10   6   0  163.30   46.41
  10   6   0  186.29   41.17
  12  -6   0  246.57   55.33
 -12  -6   0  369.92   57.10
 -12  -6   0  372.87   58.79
  12  -6   0  350.97   75.00
 -12  -6   0  345.92   57.10
 -12  -6   0  378.57   46.42
  12  -6   0  341.33   57.35
  12   6   0  391.32   47.84
  12   6   0  349.25   57.37
 -12   6   0  250.21   56.83
  12   6   0  330.00   48.95
  14  -6   0  323.53   53.22
  14  -6   0  227.65   49.82
 -14  -6   0  328.56   55.03
 -14  -6   0  285.29   49.80
 -14  -6   0  267.46   35.60
  14  -6   0  303.78   70.64
 -14  -6   0  263.39   49.74
  14   6   0  301.85   52.24
  14   6   0  243.98   42.72
  14   6   0  305.65   40.62
 -14   6   0  204.37   42.42
 -14   6   0  254.87   58.76
 -14   6   0  166.27   43.49
 -16  -6   0  322.83   59.56
  16  -6   0  306.03   61.42
 -16  -6   0  436.65   64.41
  16  -6   0  367.19   83.92
 -16  -6   0  309.35   42.88
 -16  -6   0  318.53   58.03
  16  -6   0  415.25   63.45
  16   6   0  367.19   50.77
  16   6   0  297.45   53.91
  16   6   0  367.55   61.88
 -16   6   0  321.77   56.79
 -16   6   0  225.00   52.24
 -16   6   0  338.28   62.45
 -18  -6   0  265.98   68.14
  18  -6   0  321.91   58.27
 -18  -6   0  148.32   46.56
  18  -6   0  365.67   78.04
 -18  -6   0  239.76   54.58
  18   6   0  221.19   54.94
 -18   6   0  243.41   48.57
 -18   6   0  323.69   53.99
  18   6   0  244.71   43.21
 -18   6   0  261.01   43.28
  18   6   0  229.14   48.88
 -20  -6   0  103.89   37.69
  20  -6   0   92.93   37.78
  20  -6   0  120.92   51.31
 -20  -6   0   68.97   31.32
  20   6   0  150.49   39.63
  20   6   0  130.55   39.84
 -20   6   0   40.84   36.62
  20   6   0  155.17   30.32
 -20   6   0  113.29   33.17
 -20   6   0   81.11   25.45
 -22  -6   0  165.56   40.07
 -22  -6   0   56.20   27.98
  22  -6   0   77.08   37.81
  22  -6   0  129.48   55.36
  22   6   0   84.23   36.25
  22   6   0  160.50   41.63
 -22   6   0   55.08   22.76
 -22   6   0   24.50   37.71
 -22   6   0   42.38   30.79
  24  -6   0   81.83   39.64
 -24  -6   0  114.14   39.77
 -24  -6   0   61.86   32.63
  24  -6   0   99.47   59.21
  24   6   0   88.20   39.22
 -24   6   0   32.80   42.47
 -24   6   0   33.86   20.52
  24   6   0  146.24   30.49
 -24   6   0  112.03   36.29
  24   6   0   95.88   38.31
  26  -6   0   96.93   60.02
  26  -6   0   92.39   39.58
 -26  -6   0   32.93   28.54
 -26   6   0   52.58   48.44
  26   6   0   83.44   37.92
 -26   6   0   81.41   34.17
  26   6   0   62.31   37.27
 -26   6   0   16.16   19.19
  -1  -7   0   11.96    7.74
   1  -7   0   11.90    7.22
  -1  -7   0    9.93   11.54
   1  -7   0   12.24   13.18
  -1  -7   0   11.21   10.28
  -1  -7   0   14.12    8.05
  -1  -7   0   19.63   11.57
   1  -7   0   11.90   10.25
  -1   7   0    5.97   13.78
   1   7   0    8.80   13.32
  -3  -7   0   47.07   16.15
   3  -7   0   86.85   16.51
   3  -7   0   59.92   14.12
   3  -7   0   55.33   12.47
  -3  -7   0   24.25   15.54
  -3  -7   0   57.89   14.76
  -3  -7   0   67.95   16.58
  -3  -7   0   56.97   15.78
   3  -7   0   82.95   23.78
   3   7   0   62.38   18.95
  -3   7   0   29.09   18.65
   5  -7   0   34.88   13.20
  -5  -7   0   15.27   13.90
  -5  -7   0   47.51   16.50
  -5  -7   0   14.85   10.45
   5  -7   0   38.88   21.49
  -5  -7   0   25.38   12.89
  -5   7   0   19.42   15.49
  -5   7   0   10.00   11.00
   5   7   0   22.97   13.99
   7  -7   0   82.96   31.17
  -7  -7   0   46.09   19.08
   7  -7   0   53.69   17.48
  -7  -7   0   39.60   16.69
  -7  -7   0   35.77   17.60
  -7  -7   0   21.48   11.54
  -7   7   0   47.94   19.47
   7   7   0   37.10   15.30
  -7   7   0   24.65   17.37
  -9  -7   0    5.29    9.51
   9  -7   0    2.50   14.66
  -9  -7   0   23.68   16.84
   9  -7   0   13.85   23.56
  -9  -7   0    5.41   15.04
  -9  -7   0   11.51   15.93
   9   7   0   15.25   13.28
  -9   7   0   18.49   16.98
  -9   7   0    5.26   17.60
 -11  -7   0    3.74   17.07
  11  -7   0   20.54   26.18
 -11  -7   0    2.03    8.34
  11  -7   0   -2.68   15.13
 -11  -7   0   -8.21   13.60
 -11  -7   0  -15.87   14.17
 -11   7   0   13.97   21.81
 -11   7   0    4.61   14.99
  11   7   0   -7.72   12.48
 -13  -7   0    7.05   22.14
 -13  -7   0   13.94    8.46
 -13  -7   0   22.60   20.35
  13  -7   0   36.13   32.39
  13  -7   0    8.99   19.64
 -13  -7   0    5.68   18.90
  13   7   0    3.40   16.65
 -13   7   0   -4.54   13.59
 -13   7   0    3.43   23.12
 -15  -7   0  104.41   35.64
  15  -7   0   84.67   42.78
 -15  -7   0   19.09    9.24
 -15  -7   0   65.38   26.19
 -15  -7   0   17.93   22.31
  15  -7   0   28.66   23.94
  15   7   0   41.12   25.23
 -15   7   0   34.59   18.89
  15   7   0   58.07   15.05
 -15   7   0  134.29   36.87
  15   7   0   40.17   12.39
  17  -7   0   22.68   26.68
 -17  -7   0   36.40   32.66
  17  -7   0   43.24   42.02
 -17  -7   0   54.61   27.49
 -17  -7   0   13.64   23.68
  17   7   0   15.11   13.16
 -17   7   0   17.97   18.14
  17   7   0   43.99   27.34
  17   7   0   31.41   17.17
  19  -7   0   -1.06   25.69
 -19  -7   0    8.48   24.80
  19  -7   0    2.39   34.71
 -19  -7   0   32.57   27.63
 -19   7   0   12.27   17.41
  19   7   0   26.28   19.84
  19   7   0   -4.58   12.91
 -19   7   0   52.44   24.39
  19   7   0   29.69   27.26
 -19   7   0   -5.21   15.27
 -21  -7   0   -3.47   24.02
  21  -7   0  -23.35   24.28
  21  -7   0   -3.60   37.49
 -21  -7   0    7.93   23.58
  21   7   0   -9.48   19.10
  21   7   0   38.58   18.80
 -21   7   0  -12.89   20.89
  21   7   0   -5.83   24.43
 -21   7   0   15.53   21.94
 -21   7   0   17.22   19.07
  23  -7   0   12.75   47.96
 -23  -7   0    1.99   26.17
 -23  -7   0   -7.29   24.69
  23  -7   0   30.46   33.85
 -23   7   0   -8.23   19.31
  23   7   0   21.84   28.87
 -23   7   0   52.66   23.35
 -23   7   0    3.51   17.94
  23   7   0    2.57   21.63
  23   7   0    8.37   15.43
 -25  -7   0   13.46   28.94
 -25   7   0   42.42   25.76
   0  -8   0  393.21   63.84
   0  -8   0  471.72   61.50
   0   8   0  530.98   69.20
  -2  -8   0  467.26   61.58
  -2  -8   0  485.81   64.39
   2  -8   0  404.19   59.19
   2  -8   0  381.86   64.62
   2   8   0  540.25   67.28
  -2   8   0  415.96   66.31
   4  -8   0  409.30   68.37
  -4  -8   0  549.84   65.55
   4  -8   0  378.89   57.92
  -4  -8   0  489.06   63.21
   4  -8   0  398.69   58.05
   4  -8   0  398.59   58.28
  -4   8   0  394.87   64.95
   4   8   0  538.62   64.59
   6  -8   0  623.51   89.52
   6  -8   0  616.08   78.16
  -6  -8   0  533.37   78.59
  -6  -8   0  480.19   76.73
  -6  -8   0  569.29   81.26
   6  -8   0  650.34   77.33
  -6  -8   0  599.03   82.78
   6   8   0  513.72   78.90
  -6   8   0  563.99   82.76
  -8  -8   0  391.96   56.12
  -8  -8   0  362.68   52.39
  -8  -8   0  358.03   56.24
  -8  -8   0  261.31   46.47
   8   8   0  358.14   49.58
  -8   8   0  294.26   52.26
   8   8   0  331.79   48.79
 -10  -8   0  385.17   64.15
 -10  -8   0  383.03   54.46
 -10  -8   0  450.91   64.50
  10  -8   0  413.96   61.87
  10  -8   0  427.61   75.78
 -10  -8   0  401.70   61.80
 -10   8   0  315.73   61.13
  12  -8   0  383.28   54.41
  12  -8   0  427.65   85.48
 -12  -8   0  248.64   53.12
 -12  -8   0  276.84   51.49
 -12   8   0  241.76   48.42
 -12   8   0  253.16   59.66
  12   8   0  271.27   49.18
 -14  -8   0  340.94   62.36
  14  -8   0  367.95   59.82
 -14  -8   0  349.50   59.08
 -14  -8   0  245.36   57.13
  14  -8   0  375.53   84.19
 -14   8   0  333.04   72.04
 -14   8   0  298.08   54.14
  14   8   0  313.56   56.98
 -16  -8   0  298.92   67.97
  16  -8   0  344.83   75.79
 -16  -8   0  195.97   50.84
  16  -8   0  286.30   54.01
 -16  -8   0  320.14   54.32
 -16   8   0  238.62   45.98
  16   8   0  170.97   46.80
  18  -8   0  176.13   61.43
 -18  -8   0  201.35   45.29
 -18  -8   0   78.80   35.08
  18  -8   0  202.47   45.72
  18   8   0  108.44   36.32
 -18   8   0  109.92   31.78
 -20  -8   0   48.83   29.80
 -20  -8   0  122.27   37.72
  20  -8   0  108.00   49.92
  20  -8   0   74.26   36.16
 -20   8   0   13.91   22.61
  20   8   0  100.30   31.14
  22  -8   0   12.31   45.04
 -22  -8   0    6.29   26.91
 -22  -8   0   28.34   32.58
  22  -8   0   27.67   31.45
  22   8   0   -2.56    7.33
 -22   8   0   11.30   18.64
  22   8   0    3.85    7.21
   1  -9   0   43.04   13.87
   1  -9   0   26.08   17.56
  -1  -9   0   19.98   15.33
  -1  -9   0   51.40   15.87
   1   9   0   26.41   22.18
  -1   9   0   13.00   20.31
   3  -9   0   66.36   27.24
  -3  -9   0   36.02   18.83
   3  -9   0   66.14   16.03
  -3  -9   0   38.72   18.40
  -3   9   0   41.04   24.03
   3   9   0   47.58   22.98
   5  -9   0   93.11   33.59
   5  -9   0   35.17   15.68
  -5  -9   0   88.36   18.80
  -5  -9   0   61.90   23.09
  -5  -9   0   68.14   23.29
  -5  -9   0   38.34   17.49
   5   9   0   42.53   21.84
  -5   9   0   37.68   24.13
   7  -9   0  106.28   22.88
   7  -9   0  184.58   47.49
  -7  -9   0  129.12   31.41
  -7  -9   0  107.49   25.23
   7  -9   0   75.61   19.99
  -7  -9   0   73.62   27.71
   7   9   0  107.98   27.01
  -7   9   0   43.17   24.76
   9  -9   0   33.79   18.46
  -9  -9   0  105.14   30.28
  -9  -9   0   73.38   24.06
   9  -9   0   81.65   21.53
   9  -9   0  172.27   45.78
  -9  -9   0   24.26   24.86
  -9   9   0   63.13   23.80
  -9   9   0   37.73   24.20
 -11  -9   0   64.21   29.24
 -11  -9   0   83.46   27.56
  11  -9   0   50.18   21.20
  11  -9   0  128.32   44.82
  11  -9   0   45.72   22.12
 -11  -9   0  118.25   35.80
 -11   9   0   32.17   23.36
 -11   9   0   44.23   27.38
  11   9   0   71.35   26.73
  13  -9   0   78.03   27.16
 -13  -9   0  117.97   38.13
 -13  -9   0   32.09   28.19
  13  -9   0  170.19   57.47
 -13  -9   0  108.68   31.85
  13  -9   0   96.37   26.39
  13   9   0   62.03   24.07
 -13   9   0   71.95   31.03
 -13   9   0   38.71   27.50
  15  -9   0   21.19   24.04
  15  -9   0   36.31   42.58
  15  -9   0   35.39   25.70
 -15  -9   0   36.89   24.62
 -15  -9   0   29.13   28.01
 -15  -9   0   84.29   35.01
 -15   9   0   19.43   22.74
 -17  -9   0   -4.75   23.94
  17  -9   0   93.97   47.67
 -17  -9   0   89.50   31.82
  17  -9   0   29.14   28.28
 -17   9   0   16.72   23.92
 -19  -9   0    9.46   26.77
  19  -9   0   21.37   26.60
 -19  -9   0   -6.15   23.38
  19  -9   0   31.02   44.04
  19   9   0    2.49    9.06
 -19   9   0   13.40   22.78
   0 -10   0  505.22   63.03
   0 -10   0  360.37   65.51
   0  10   0  428.62   71.21
  -2 -10   0  323.48   55.11
   2 -10   0  369.78   61.34
   2 -10   0  343.49   52.74
  -2 -10   0  439.48   56.19
  -2  10   0  301.15   60.82
   2  10   0  373.73   60.48
   4 -10   0  342.14   52.02
   4 -10   0  381.22   64.55
   4  10   0  393.80   59.38
  -4  10   0  306.22   60.74
  -6 -10   0  392.68   67.50
   6 -10   0  409.11   60.13
   6 -10   0  387.34   73.93
  -6 -10   0  534.07   65.64
  -6  10   0  295.06   66.22
   6  10   0  408.61   63.65
  -8 -10   0  335.38   60.71
   8 -10   0  306.62   45.54
   8 -10   0  391.86   67.80
   8 -10   0  303.78   50.65
  -8 -10   0  451.31   59.30
  -8 -10   0  296.50   49.72
  -8  10   0  204.10   53.50
 -10 -10   0  222.02   41.39
  10 -10   0  223.76   38.13
 -10 -10   0  192.00   44.89
  10 -10   0  354.53   71.16
 -10  10   0  140.43   42.29
  12 -10   0  270.12   40.88
 -12 -10   0  151.36   38.04
 -12 -10   0  158.72   41.79
  12 -10   0  264.37   62.07
  12 -10   0  138.82   32.77
 -12 -10   0  236.15   54.62
 -12  10   0   63.67   34.23
 -14 -10   0  109.71   38.90
 -14 -10   0  135.16   47.78
 -14 -10   0  179.67   40.76
  14 -10   0  244.17   64.01
  14 -10   0  151.11   34.56
  14 -10   0  131.89   36.77
 -14  10   0  111.20   36.15
  16 -10   0   95.13   33.11
 -16 -10   0   78.72   34.68
 -16 -10   0  178.35   40.64
  16 -10   0  192.52   60.70
 -16  10   0   54.22   29.81
 -18 -10   0   60.39   31.08
   1 -11   0   29.76   18.08
   1 -11   0   30.67   25.72
  -1 -11   0   17.16   19.07
  -1 -11   0   18.54   22.34
   1  11   0    2.57   26.05
  -1  11   0   39.58   29.93
   3 -11   0   18.78   27.85
  -3 -11   0   37.36   23.43
  -3 -11   0    1.54   18.32
   3 -11   0   12.76   16.26
   3  11   0    9.70   25.65
  -3  11   0    0.41   25.83
  -5 -11   0   28.06   22.57
  -5 -11   0   -4.02   20.46
   5 -11   0   25.62   17.91
   5 -11   0   13.94   30.44
   5  11   0    4.62   23.51
  -5  11   0   -2.86   25.22
  -7 -11   0   18.84   25.49
  -7 -11   0   22.92   25.43
   7 -11   0   -1.26   30.25
   7 -11   0   -0.57   16.95
  -7  11   0   13.72   28.15
   7  11   0   16.38   22.18
   9 -11   0   -9.18   17.53
  -9 -11   0   -3.69   13.67
  -9 -11   0    5.09   26.93
  -9 -11   0    4.42   14.71
   9 -11   0   71.28   37.93
  -9 -11   0   24.28   28.34
  -9  11   0   -1.31   24.96
  11 -11   0   11.21   21.59
 -11 -11   0    9.70   17.33
  11 -11   0   11.61   36.17
  11 -11   0   15.30   14.21
 -11 -11   0   21.74   30.98
 -11 -11   0   45.63   20.03
 -11 -11   0  -28.77   21.20
 -11  11   0    6.27   28.69
  13 -11   0    7.09   38.10
 -13 -11   0   13.86   20.34
 -13 -11   0    4.24   17.48
  13 -11   0    8.35   17.68
  13 -11   0   21.83   23.12
 -13 -11   0    7.52   28.27
 -13 -11   0    8.55   35.51
 -13  11   0  -27.11   22.64
   0 -12   0  200.90   55.47
   0 -12   0  335.61   49.64
   0  12   0  219.74   54.47
   2 -12   0  288.33   45.38
   2 -12   0  217.48   55.19
  -2 -12   0  288.39   49.14
  -2 -12   0  180.42   49.09
   2  12   0  192.70   51.51
  -2  12   0  267.30   58.62
  -4 -12   0  116.48   34.96
  -4 -12   0   77.78   32.84
   4 -12   0  173.65   49.31
  -4  12   0  118.90   43.13
   4  12   0  193.77   43.09
   6 -12   0  120.56   49.58
   6 -12   0  228.58   36.79
  -6 -12   0  134.30   39.08
  -6 -12   0   76.90   35.52
  -6  12   0  132.14   44.19
  -8 -12   0   53.01   32.03
  30   0  -1   17.08   42.08
 -30   0   1   -4.07   22.29
 -30   0   1   -0.81    9.94
  30   0  -1   13.68   40.08
 -28   0   1  -11.34   17.27
 -28   0   1    1.94    9.26
  28   0  -1    8.27   33.24
  28   0  -1  -13.23   32.35
 -26   0   1  -16.07   16.03
 -26   0   1    3.59   10.29
  26   0  -1  -19.77   28.91
  26   0  -1    0.05   29.44
 -24   0   1   13.83   11.43
  24   0  -1   33.29   41.09
  24   0  -1    8.57   30.10
 -24   0   1    3.66   21.71
  22   0  -1   51.26   34.00
 -22   0   1   32.73   28.03
 -22   0   1   24.97   23.75
  22   0  -1   71.10   39.60
  20   0  -1   16.67   23.50
 -20   0   1   29.63   24.38
  20   0  -1    7.11   27.40
 -20   0   1   18.37   20.53
  20   0  -1   36.82   28.97
 -20   0   1   16.33   26.03
  18   0  -1   70.96   34.37
  18   0  -1   79.50   34.19
 -18   0   1   79.65   35.62
 -18   0   1  105.81   34.64
 -18   0   1   62.65   27.12
  16   0  -1   -2.45   18.27
  16   0  -1   -6.01   16.43
 -16   0   1   -2.63   14.69
 -16   0   1    7.67   19.64
 -16   0   1   -7.79   12.38
  14   0  -1   -1.27   15.53
 -14   0   1    0.32   11.77
  14   0  -1   -2.04   16.20
 -14   0   1  -13.66   10.13
 -14   0   1    7.19   15.91
 -12   0   1  346.81   53.47
  12   0  -1  337.06   53.34
 -12   0   1  247.73   47.33
  12   0  -1  380.98   58.19
 -12   0   1  355.18   57.08
  10   0  -1  219.80   43.20
  10   0  -1  110.24   26.58
 -10   0   1  118.06   27.70
 -10   0   1  120.44   32.44
 -10   0   1   71.69   20.41
  -8   0   1  140.11   26.57
   8   0  -1  165.02   28.30
   8   0  -1  255.32   41.28
  -8   0   1  223.01   39.62
  -8   0   1  113.87   23.11
   8   0  -1  119.00   22.82
   6   0  -1  369.43   47.92
  -6   0   1  263.69   40.91
  -6   0   1  362.29   45.27
  -6   0   1  308.73   46.00
   6   0  -1  257.93   40.65
  -4   0   1  140.97   21.51
  -4   0   1  142.42   23.11
   4   0  -1  101.06   17.05
   4   0  -1  146.18   23.23
  -4   0   1  106.37   17.07
  -2   0   1  721.46   87.17
   2   0  -1  598.53   85.99
  -2   0   1  537.14   85.68
   2   0  -1  760.37   87.32
   0   0   1  371.80   45.81
   0   0  -1  340.50   47.90
   0   0   1  298.35   51.10
  -2   0  -1  715.24   96.00
   2   0   1  754.85   96.10
   4   0   1  490.79   65.19
  -4   0  -1  493.28   63.76
   4   0   1  455.60   63.74
  -4   0  -1  478.23   65.52
   6   0   1    8.15    3.94
   6   0   1   13.28    8.81
  -6   0  -1    4.72    7.13
   6   0   1   11.93   10.68
   6   0   1    2.86    9.13
  -6   0  -1    7.13    3.82
  -6   0  -1    7.90   10.41
  -6   0  -1   10.02   10.25
   8   0   1  512.37   64.37
   8   0   1  486.35   62.40
  -8   0  -1  548.27   64.62
  -8   0  -1  338.48   54.07
   8   0   1  394.15   59.69
  -8   0  -1  407.89   61.36
  -8   0  -1  439.13   59.95
  10   0   1  501.76   72.88
 -10   0  -1  431.33   65.55
  10   0   1  611.14   75.67
 -10   0  -1  489.81   74.01
 -10   0  -1  608.91   73.96
  12   0   1  322.74   58.08
 -12   0  -1  212.16   42.04
  12   0   1  258.86   49.95
 -12   0  -1  303.30   53.50
  12   0   1  246.40   48.44
 -12   0  -1  239.65   51.14
  14   0   1   87.15   31.81
 -14   0  -1   65.13   14.36
 -14   0  -1  136.47   33.36
 -14   0  -1  105.67   31.56
  14   0   1   86.70   27.96
  14   0   1   61.84   26.59
 -14   0  -1   65.55   27.33
 -16   0  -1   78.96   16.69
 -16   0  -1   84.52   29.63
 -16   0  -1  178.17   48.29
  16   0   1   92.47   35.19
 -16   0  -1  100.09   30.49
  16   0   1  141.89   37.50
  16   0   1   71.50   28.35
 -18   0  -1  129.03   38.61
  18   0   1  114.51   38.51
 -18   0  -1  203.06   52.59
 -18   0  -1  127.33   24.00
  18   0   1  140.25   45.97
  18   0   1  150.68   41.87
 -18   0  -1  255.78   52.43
  20   0   1  304.64   62.81
 -20   0  -1  330.17   75.84
  20   0   1  219.50   55.53
 -20   0  -1  147.26   48.34
 -20   0  -1  279.65   54.86
  20   0   1  247.89   61.62
 -22   0  -1   30.26   27.93
  22   0   1   72.55   37.35
 -22   0  -1   89.78   18.45
  22   0   1  141.67   52.37
 -22   0  -1  130.96   41.62
 -24   0  -1   28.90   29.25
  24   0   1   23.57   32.63
 -24   0  -1   27.57   11.80
  24   0   1   43.49   40.78
 -26   0  -1    7.37   23.01
 -26   0  -1   14.68   10.06
  26   0   1   17.62   35.59
  26   0   1    6.31   30.25
 -28   0  -1   -3.29   23.11
 -28   0  -1    7.65   10.07
  28   0   1   26.40   35.71
  28   0   1   32.55   40.63
  30   0   1   64.35   55.10
 -30   0  -1   34.25   33.76
 -29  -1   1   35.95   13.14
  29  -1  -1   65.68   44.51
  29  -1  -1   28.75   42.22
 -29  -1   1   35.50   26.76
  29   1  -1   33.17   43.96
 -29   1   1   43.60   28.03
  29   1  -1   48.61   42.61
 -29   1   1   37.37   14.87
  27  -1  -1   36.91   45.67
 -27  -1   1   44.17   14.43
 -27  -1   1   54.98   27.79
  27  -1  -1   16.71   35.85
  27   1  -1   65.62   50.07
 -27   1   1   33.25   25.62
  27   1  -1   36.20   39.05
 -27   1   1   45.50   15.68
 -25  -1   1   45.49   28.36
  25  -1  -1  122.76   49.50
  25  -1  -1   99.21   45.74
 -25  -1   1   92.46   19.93
 -25   1   1   73.54   19.95
 -25   1   1   70.39   31.78
  25   1  -1  208.45   62.42
  25   1  -1  164.86   51.65
 -23  -1   1  309.04   57.40
  23  -1  -1  254.70   70.97
 -23  -1   1  221.65   51.13
  23  -1  -1  244.84   60.76
 -23   1   1  177.08   35.17
 -23   1   1  228.05   53.42
  23   1  -1  378.24   71.63
  23   1  -1  273.17   70.36
 -21  -1   1  153.28   39.69
  21  -1  -1  206.97   61.10
 -21  -1   1  173.39   47.93
  21  -1  -1  107.53   40.15
  21   1  -1  122.96   45.63
 -21   1   1  169.76   53.19
  21   1  -1  161.95   40.25
 -21   1   1  115.28   37.38
 -21   1   1  153.81   48.82
 -21   1   1  112.55   25.53
  21   1  -1  200.33   49.29
  19  -1  -1  603.47  104.74
 -19  -1   1  348.60   62.79
  19  -1  -1  436.23   72.93
 -19  -1   1  368.52   71.75
 -19  -1   1  336.90   68.49
  19   1  -1  412.70   76.66
  19   1  -1  458.09   71.75
 -19   1   1  340.81   62.06
 -19   1   1  334.09   68.09
 -19   1   1  511.27   98.71
  17  -1  -1 1102.87  149.64
  17  -1  -1 1117.26  155.78
 -17  -1   1 1193.05  144.81
 -17  -1   1  935.50  150.94
 -17  -1   1 1010.99  148.75
 -17   1   1 1050.19  143.79
 -17   1   1  917.97  147.43
  17   1  -1 1226.32  149.94
 -17   1   1  842.33  149.88
  17   1  -1 1108.74  154.25
  15  -1  -1  370.31   70.15
 -15  -1   1  399.00   68.20
 -15  -1   1  380.20   64.47
  15  -1  -1  428.03   66.38
 -15   1   1  437.70   61.36
  15   1  -1  486.38   66.83
 -15   1   1  281.63   61.72
 -15   1   1  309.56   65.34
  15   1  -1  447.43   69.68
 -13  -1   1  413.86   73.27
 -13  -1   1  488.44   70.64
 -13  -1   1  395.12   75.14
  13  -1  -1  521.82   81.03
  13  -1  -1  582.32   76.98
  13   1  -1  461.72   77.65
  13   1  -1  567.10   71.43
 -13   1   1  465.85   74.61
 -13   1   1  426.03   76.87
 -13   1   1  539.58   71.50
  13   1  -1  530.03   74.74
  11  -1  -1 1456.10  190.12
 -11  -1   1 1537.63  181.80
 -11  -1   1 1172.78  185.94
 -11  -1   1 1393.42  184.83
  11  -1  -1 1641.43  186.96
  11   1  -1 1403.44  187.57
 -11   1   1 1151.04  186.50
  11   1  -1 1397.46  184.23
  11   1  -1 1542.44  181.72
 -11   1   1 1189.57  183.97
  -9  -1   1 1971.43  255.82
   9  -1  -1 2004.98  256.76
   9  -1  -1 1948.08  259.85
  -9  -1   1 1829.80  257.58
   9   1  -1 2283.88  256.49
   9   1  -1 2131.35  258.77
  -9   1   1 1673.83  255.38
  -7  -1   1 3967.92  559.68
  -7   1   1 4690.05  566.52
   7   1  -1 4066.32  564.91
   5  -1  -1  709.79  103.11
  -5  -1   1  889.86  102.39
   5  -1  -1  590.50  103.35
  -5  -1   1  924.12  103.98
   5  -1  -1  656.64   99.12
   5   1  -1  901.75  103.50
  -3  -1   1 6830.14  887.72
   3  -1  -1 7088.50  894.15
  -1   1   1 1110.43  145.02
  -1  -1  -1  713.98   95.24
   3  -1   1 7349.98  937.71
   3   1   1 7563.81  947.03
  -3   1  -1 7169.78  936.76
   5  -1   1 1322.03  152.93
   5  -1   1 1236.60  151.49
   5  -1   1 1153.86  149.03
  -5   1  -1  973.39  152.00
  -5   1  -1 1146.68  151.12
  -5   1  -1 1220.97  153.01
  -7  -1  -1 4213.61  578.33
   7  -1   1 4656.28  584.49
  -7   1  -1 3976.92  574.18
   7   1   1 4581.88  584.94
  -9   1  -1 2320.23  293.89
  -9   1  -1 2148.25  294.48
  -9   1  -1 2335.75  292.37
 -11  -1  -1 1337.95  170.14
 -11  -1  -1 1210.37  168.20
 -11  -1  -1 1153.34  170.67
  11  -1   1 1394.36  169.20
  11  -1   1 1259.92  171.93
  11   1   1 1305.45  169.35
  11   1   1 1192.08  171.20
 -11   1  -1 1218.41  168.54
 -11   1  -1 1385.32  170.74
 -11   1  -1 1239.51  171.92
  13  -1   1  410.85   64.02
 -13  -1  -1  341.34   58.50
  13  -1   1  496.06   62.06
 -13  -1  -1  385.42   60.14
 -13  -1  -1  303.26   60.55
 -13  -1  -1  325.52   48.47
 -13   1  -1  384.55   59.90
  13   1   1  354.03   62.55
  13   1   1  433.56   61.10
 -13   1  -1  449.73   62.02
 -13   1  -1  349.35   62.58
 -15  -1  -1  520.52   79.58
  15  -1   1  474.36   74.69
  15  -1   1  500.73   80.25
 -15  -1  -1  649.48   78.24
 -15  -1  -1  495.41   63.00
 -15  -1  -1  466.05   74.85
 -15   1  -1  415.09   77.58
 -15   1  -1  494.29   75.51
 -15   1  -1  452.91   75.13
  15   1   1  572.81   81.70
 -15   1  -1  425.94   64.44
 -17  -1  -1 1112.49  156.84
 -17  -1  -1 1158.82  161.72
  17  -1   1 1220.85  157.69
  17  -1   1 1177.84  162.52
 -17  -1  -1 1153.75  156.43
 -17  -1  -1 1107.76  143.55
 -17   1  -1  974.64  160.10
  17   1   1 1264.80  163.81
 -17   1  -1 1020.72  155.52
 -17   1  -1 1149.51  158.05
 -17   1  -1 1016.15  145.01
  17   1   1 1297.83  158.92
 -19  -1  -1  401.02   66.36
  19  -1   1  349.07   67.60
  19  -1   1  438.32   84.93
 -19  -1  -1  439.57   69.25
 -19  -1  -1  375.39   50.82
 -19  -1  -1  446.39   74.50
  19   1   1  477.19   71.37
 -19   1  -1  319.57   66.94
 -19   1  -1  335.57   52.37
 -19   1  -1  402.31   72.78
 -19   1  -1  374.46   66.71
  19   1   1  438.33   76.17
  21  -1   1  156.67   51.49
 -21  -1  -1  163.92   44.62
 -21  -1  -1  119.75   20.95
  21  -1   1  155.33   44.91
 -21  -1  -1  231.15   71.34
 -21  -1  -1  165.42   45.05
  21   1   1  173.67   44.33
  21   1   1  122.97   45.93
 -21   1  -1  195.79   56.71
 -21   1  -1  113.26   24.00
 -21   1  -1  169.99   42.79
 -21   1  -1   78.98   35.57
  23  -1   1  288.57   61.54
 -23  -1  -1  233.60   33.55
 -23  -1  -1  301.85   62.92
  23  -1   1  333.94   76.53
 -23   1  -1  197.99   35.07
 -23   1  -1  173.53   50.92
  23   1   1  325.64   71.56
  23   1   1  300.17   62.11
  25  -1   1   97.47   40.98
 -25  -1  -1   54.37   29.65
 -25  -1  -1   81.29   16.40
  25  -1   1   94.04   44.67
 -25   1  -1   80.63   34.29
 -25   1  -1   77.48   19.00
  25   1   1  102.71   45.61
  25   1   1   72.46   36.72
 -27  -1  -1   70.48   32.69
  27  -1   1   57.79   46.17
  27  -1   1  106.39   44.54
 -27  -1  -1   46.44   12.73
 -27   1  -1   59.21   36.69
 -27   1  -1   33.88   13.94
  27   1   1  159.22   58.20
  27   1   1   93.13   42.87
  29  -1   1   72.98   41.18
  29  -1   1   20.74   42.53
 -29  -1  -1   56.85   13.16
 -29  -1  -1   11.13   26.52
 -29   1  -1   63.67   34.86
 -29   1  -1   21.11   12.91
  29   1   1   68.15   43.25
  29   1   1   58.59   48.33
 -28  -2   1   13.21   21.81
  28  -2  -1    4.82   34.03
  28  -2  -1   -1.44   35.23
 -28  -2   1    1.63    8.12
  28   2  -1   61.53   47.89
  28   2  -1    0.79   33.24
 -28   2   1   13.89   12.74
 -28   2   1   -0.25   23.87
 -26  -2   1    6.60    8.79
  26  -2  -1   22.20   36.92
 -26  -2   1  -11.66   17.83
  26  -2  -1    0.01   34.22
 -26   2   1   -3.72   10.37
  26   2  -1   18.98   32.43
  26   2  -1    3.04   34.84
 -26   2   1  -18.16   18.35
 -24  -2   1    8.67   21.96
  24  -2  -1   64.60   42.31
  24  -2  -1   43.45   35.01
  24   2  -1   25.39   32.31
  24   2  -1   32.84   39.09
 -24   2   1   21.65   14.65
 -24   2   1   25.38   23.69
 -22  -2   1   17.01   21.44
  22  -2  -1   55.66   33.64
 -22  -2   1   63.89   30.17
  22  -2  -1   30.27   37.54
  22   2  -1   90.23   35.29
 -22   2   1   54.03   44.20
 -22   2   1   24.14   24.57
  22   2  -1   15.71   30.93
 -22   2   1   13.78   13.43
  22   2  -1   40.90   28.88
 -20  -2   1   73.15   32.19
  20  -2  -1   51.36   37.53
 -20  -2   1   45.55   26.30
 -20  -2   1   21.50   21.28
  20  -2  -1   53.27   32.13
 -20   2   1   79.99   31.07
 -20   2   1   51.61   38.57
  20   2  -1   34.94   24.67
  20   2  -1   38.21   28.80
  20   2  -1   77.93   38.25
 -20   2   1   21.26   12.97
 -20   2   1   -0.01   17.91
 -18  -2   1   95.51   30.61
 -18  -2   1  169.60   43.54
  18  -2  -1  119.05   44.47
  18  -2  -1  137.58   39.85
 -18  -2   1  100.62   37.54
 -18   2   1   87.31   34.90
 -18   2   1   97.00   31.80
  18   2  -1  149.17   46.88
  18   2  -1   89.47   28.78
 -18   2   1  184.14   47.29
 -18   2   1   86.54   22.33
  18   2  -1  109.11   36.45
 -16  -2   1    7.94   16.50
 -16  -2   1   37.94   23.61
  16  -2  -1   50.01   31.62
  16  -2  -1   36.73   24.56
 -16  -2   1   66.33   26.61
  16   2  -1   14.60   20.83
 -16   2   1   28.94   19.84
 -16   2   1   63.31   27.95
  16   2  -1   26.97   24.96
  16   2  -1   18.84   15.31
 -16   2   1   30.18   20.85
  14  -2  -1   63.26   24.97
 -14  -2   1   93.25   27.94
 -14  -2   1   73.38   22.40
  14  -2  -1   81.91   33.83
 -14  -2   1   62.70   26.80
 -14   2   1   54.56   29.30
  14   2  -1   54.14   19.21
 -14   2   1   47.26   24.40
  14   2  -1   64.68   29.63
 -14   2   1   33.33   18.85
  14   2  -1   56.14   23.01
 -12  -2   1  356.73   56.58
  12  -2  -1  400.07   60.57
 -12  -2   1  241.90   46.18
 -12  -2   1  355.66   52.52
  12  -2  -1  368.63   54.52
 -12   2   1  317.77   56.41
  12   2  -1  359.91   55.66
  12   2  -1  256.33   45.57
 -12   2   1  350.03   53.09
  12   2  -1  329.40   51.42
 -12   2   1  216.40   46.25
  10  -2  -1  185.69   35.90
  10  -2  -1  242.98   50.02
 -10  -2   1  142.76   30.81
 -10  -2   1  152.11   37.55
 -10  -2   1  110.94   26.17
 -10   2   1  117.71   37.30
  10   2  -1  195.07   35.45
 -10   2   1  145.41   33.17
  10   2  -1  231.04   42.33
  10   2  -1  109.24   24.90
 -10   2   1   99.76   26.13
   8  -2  -1   76.61   22.75
  -8  -2   1   65.79   17.39
  -8  -2   1   54.45   14.21
   8  -2  -1   47.25   21.50
  -8  -2   1   63.18   20.48
   8   2  -1   37.35   18.53
   8   2  -1   45.70   16.50
  -8   2   1   51.29   18.45
  -8   2   1   36.17   13.33
  -8   2   1   78.91   25.71
   8   2  -1   32.26   11.23
   6  -2  -1  255.51   42.15
  -6  -2   1  366.40   45.83
   6  -2  -1  408.42   52.97
  -6  -2   1  356.52   47.69
   6   2  -1  352.69   46.35
   6   2  -1  309.43   44.63
  -6   2   1  274.83   42.78
  -6   2   1  345.17   48.57
   6   2  -1  267.17   41.49
  -6   2   1  308.91   49.10
   4  -2  -1   99.74   18.30
   4  -2  -1  155.54   26.08
  -4  -2   1  131.46   21.57
   4  -2  -1  160.90   32.31
  -4  -2   1   92.26   17.54
  -4  -2   1  138.51   20.93
  -4   2   1  135.36   25.22
  -4   2   1  189.38   32.29
   4   2  -1  127.34   17.76
   4   2  -1  150.40   20.27
   4   2  -1  150.49   20.81
  -4   2   1  109.87   18.81
   2  -2  -1   34.66   13.67
   2  -2  -1   32.48    7.48
   2  -2  -1   46.61   14.63
  -2  -2   1   44.08    9.04
  -2  -2   1   22.79    5.36
  -2  -2   1   23.18    6.90
  -2  -2   1   48.38    8.16
  -2   2   1   18.21   11.75
  -2   2   1   27.60    6.52
  -2   2   1   34.32   12.77
   0  -2  -1  397.53   52.61
   0  -2   1  347.64   49.37
   0  -2  -1  337.51   54.66
   0   2   1  434.26   51.62
   2  -2   1   91.34   15.61
   2  -2   1   82.19   15.63
  -2  -2  -1  131.76   22.48
  -2  -2  -1   88.84   16.51
  -2  -2  -1  104.95   16.81
   2  -2   1  112.99   15.24
   2  -2   1   99.54   15.03
   2   2   1   97.69   16.92
   2   2   1   88.56   17.85
  -2   2  -1  121.32   15.36
  -2   2  -1  102.44   16.18
   2   2   1  113.37   16.11
  -4  -2  -1    5.73    6.68
  -4  -2  -1   13.76   10.12
   4  -2   1    9.59    7.96
   4  -2   1    9.48    7.61
  -4  -2  -1   19.92    9.61
   4  -2   1   10.69    6.67
   4  -2   1    6.04    5.67
  -4   2  -1    3.80    7.40
   4   2   1   10.57    3.31
   4   2   1   18.58    8.65
  -4   2  -1   14.77    7.08
   4   2   1   14.03    9.35
   4   2   1   11.00    7.63
  -4   2  -1    7.95    6.47
  -4   2  -1   28.25    9.41
   6  -2   1   23.98    8.83
  -6  -2  -1   37.97   14.26
   6  -2   1   29.01   12.85
  -6  -2  -1   36.49   15.03
   6  -2   1   36.88   11.91
   6  -2   1   55.69   16.77
  -6  -2  -1   16.12    9.80
  -6   2  -1   22.69   12.04
  -6   2  -1   34.07   12.16
  -6   2  -1   34.88   14.07
   6   2   1   54.09   15.41
   6   2   1   26.03   11.97
  -6   2  -1   29.86    9.10
   6   2   1   54.91   16.05
  -8  -2  -1  120.19   24.04
  -8  -2  -1   74.33   23.25
   8  -2   1   99.63   24.75
   8  -2   1  103.44   22.79
  -8  -2  -1  107.31   26.38
   8  -2   1  132.46   28.39
   8  -2   1   60.52   16.15
   8   2   1  128.86   26.43
  -8   2  -1  115.14   24.34
  -8   2  -1  105.54   25.61
  -8   2  -1   74.95   17.23
   8   2   1   94.14   23.26
  -8   2  -1  127.73   28.53
   8   2   1  149.26   29.02
  10  -2   1  220.53   40.25
 -10  -2  -1  233.32   43.52
  10  -2   1  166.80   34.71
 -10  -2  -1  181.86   35.56
  10  -2   1  230.13   38.94
 -10  -2  -1  210.07   38.94
  10   2   1  209.17   39.06
  10   2   1  202.14   37.65
 -10   2  -1  238.82   43.82
  10   2   1  201.99   38.25
 -10   2  -1  235.95   40.06
 -10   2  -1  225.18   37.27
 -12  -2  -1  101.41   30.03
  12  -2   1  122.69   32.13
 -12  -2  -1  165.06   40.65
  12  -2   1   93.58   28.11
 -12  -2  -1  130.21   30.80
  12  -2   1  100.56   32.23
  12   2   1  137.35   34.18
 -12   2  -1   79.54   30.40
 -12   2  -1  148.58   37.58
  12   2   1  131.35   34.51
 -12   2  -1  128.48   23.66
 -12   2  -1  131.09   31.74
  12   2   1  140.45   32.56
  14  -2   1   -1.25   15.50
 -14  -2  -1    4.16   14.32
 -14  -2  -1   -8.14   14.18
  14  -2   1    6.30   18.70
  14  -2   1   17.56   21.30
 -14  -2  -1    9.55   17.21
 -14  -2  -1    6.99    3.80
 -14   2  -1    9.86    9.72
 -14   2  -1   35.17   20.95
  14   2   1   16.95   17.36
 -14   2  -1    9.27   17.56
  14   2   1   -6.56   15.70
 -14   2  -1   -4.18   17.46
  14   2   1   43.68   26.59
 -16  -2  -1   27.32   23.62
 -16  -2  -1    8.99    5.01
  16  -2   1   11.39   22.09
  16  -2   1   56.02   30.28
  16  -2   1   22.00   20.87
 -16  -2  -1  -12.35   14.87
 -16  -2  -1   19.45   20.28
 -16   2  -1   40.90   22.77
  16   2   1    3.99   19.42
  16   2   1   14.39   24.48
  16   2   1   21.16   21.58
 -16   2  -1   19.13   20.77
 -16   2  -1    3.31   20.27
 -16   2  -1    3.69    9.20
 -18  -2  -1   19.03   25.50
  18  -2   1   46.40   28.62
  18  -2   1   18.53   23.40
  18  -2   1   60.87   33.87
 -18  -2  -1   40.12   23.51
 -18  -2  -1   30.40    7.57
 -18  -2  -1   19.09   21.34
  18   2   1   48.01   26.65
  18   2   1   66.12   36.60
  18   2   1   14.25   22.97
 -18   2  -1   22.58   22.49
 -18   2  -1   12.75   11.73
 -18   2  -1   38.92   24.33
 -18   2  -1   34.38   31.18
  20  -2   1   29.45   29.55
 -20  -2  -1   31.32   28.51
  20  -2   1   22.82   28.40
  20  -2   1   -3.24   21.42
 -20  -2  -1    4.13   18.20
 -20  -2  -1   14.54    6.54
 -20  -2  -1   32.29   24.70
 -20   2  -1   11.99   10.68
  20   2   1    0.06   26.78
 -20   2  -1   19.94   24.55
 -20   2  -1   86.57   28.82
  20   2   1   10.07   26.21
 -20   2  -1   12.52   28.54
  20   2   1    9.84   22.36
 -22  -2  -1   64.04   28.08
 -22  -2  -1   18.81    7.65
  22  -2   1   35.42   30.04
  22  -2   1   57.18   39.48
 -22  -2  -1    4.64   21.23
 -22   2  -1   35.64   28.41
 -22   2  -1  108.08   43.82
 -22   2  -1   29.36   13.89
  22   2   1   44.96   36.21
  22   2   1   11.41   26.93
  24  -2   1   16.24   33.55
  24  -2   1   23.74   30.54
 -24  -2  -1    6.32    6.75
 -24  -2  -1   -7.56   21.89
  24   2   1    5.14   31.74
  24   2   1   -3.45   27.21
 -24   2  -1   -0.72   10.55
 -24   2  -1    9.21   27.17
 -26  -2  -1   -8.58   20.83
  26  -2   1   -4.23   28.23
  26  -2   1   -8.35   30.38
 -26  -2  -1   -1.01    6.64
  26   2   1   -6.52   32.15
 -26   2  -1  -36.95   17.71
  26   2   1    3.88   29.56
 -26   2  -1   -6.05    9.82
 -28  -2  -1  -20.99   20.38
  28  -2   1   -9.91   34.69
  28  -2   1   13.08   35.13
  28   2   1   28.87   41.69
 -28   2  -1    2.65   11.11
  28   2   1    5.82   33.12
 -28   2  -1    2.54   26.63
 -29  -3   1   32.49    9.90
  29  -3  -1   19.03   39.31
 -29  -3   1    9.45   19.82
  29  -3  -1   15.01   42.74
 -29   3   1   29.00   15.34
 -29   3   1  -14.02   23.44
  29   3  -1   27.93   40.28
  29   3  -1   82.01   51.72
 -27  -3   1   55.94   13.73
 -27  -3   1   36.37   26.63
  27  -3  -1   74.42   41.99
  27  -3  -1   66.93   53.46
  27   3  -1   43.03   38.04
 -27   3   1   86.09   35.19
  27   3  -1  154.70   53.28
 -27   3   1   51.30   19.69
  25  -3  -1  105.44   54.17
  25  -3  -1  102.81   45.82
 -25  -3   1   37.12   29.39
  25   3  -1   93.56   41.08
  25   3  -1   98.83   47.70
 -25   3   1   83.16   32.92
 -25   3   1   75.01   21.19
  23  -3  -1  234.93   70.50
 -23  -3   1  110.22   40.89
  23  -3  -1  224.05   58.39
 -23  -3   1  196.66   50.60
 -23   3   1  149.07   41.78
  23   3  -1  186.11   54.49
 -23   3   1  143.75   31.04
  23   3  -1  163.15   49.38
 -21  -3   1  202.35   52.64
 -21  -3   1  131.44   40.80
  21  -3  -1  173.76   59.81
  21  -3  -1  193.77   51.33
 -21   3   1  170.12   33.42
 -21   3   1  247.24   62.52
  21   3  -1  201.47   50.36
  21   3  -1  293.44   51.63
  21   3  -1  155.67   49.35
 -21   3   1  118.38   38.71
 -19  -3   1  270.67   59.05
 -19  -3   1  212.65   49.27
  19  -3  -1  396.12   83.12
 -19  -3   1  249.52   62.30
  19  -3  -1  383.37   69.26
  19   3  -1  231.66   48.54
 -19   3   1  218.61   39.32
  19   3  -1  278.75   66.23
 -19   3   1  279.32   70.94
 -19   3   1  312.65   53.92
 -19   3   1  267.26   52.88
  19   3  -1  204.88   52.30
  17  -3  -1  834.40  121.62
  17  -3  -1  893.60  114.94
 -17  -3   1  652.77  109.34
 -17  -3   1  725.44  104.96
 -17  -3   1  665.51  111.55
 -17   3   1  819.24  106.48
 -17   3   1  755.36   98.62
  17   3  -1  718.31  112.71
  17   3  -1  842.35  104.76
 -17   3   1  564.11  111.31
  17   3  -1  796.16  110.03
 -17   3   1  577.86  108.74
 -15  -3   1  511.53   86.36
 -15  -3   1  474.80   88.51
  15  -3  -1  574.61   96.47
  15  -3  -1  644.31   90.69
 -15  -3   1  667.83   84.05
  15   3  -1  576.41   89.83
 -15   3   1  468.02   89.22
  15   3  -1  607.30   87.43
  15   3  -1  676.37   82.59
 -15   3   1  585.16   77.76
 -15   3   1  477.68   86.10
 -15   3   1  566.30   82.99
 -13  -3   1  427.21   76.54
  13  -3  -1  564.61   84.93
 -13  -3   1  411.28   73.16
 -13  -3   1  558.79   71.68
 -13   3   1  430.40   77.72
 -13   3   1  400.93   74.02
  13   3  -1  575.40   69.90
  13   3  -1  499.55   75.97
  13   3  -1  533.83   74.85
 -11  -3   1 1011.85  136.85
 -11  -3   1 1011.14  133.09
 -11  -3   1 1059.30  140.04
  11  -3  -1 1160.57  146.36
 -11   3   1  953.83  138.52
  11   3  -1 1016.34  131.86
  11   3  -1  935.36  135.45
 -11   3   1 1232.74  135.28
 -11   3   1  827.98  138.90
  11   3  -1  901.92  136.52
   9  -3  -1 1552.97  239.65
  -9  -3   1 1686.76  236.32
  -9  -3   1 1727.85  234.51
   9  -3  -1 1740.78  236.87
   9   3  -1 2010.79  234.87
  -9   3   1 1819.23  232.52
   9   3  -1 1865.19  234.89
   9   3  -1 1960.14  230.93
   7  -3  -1 1835.86  203.21
  -7  -3   1 1291.86  194.99
  -7  -3   1 1683.22  192.47
  -7  -3   1 1384.79  194.11
  -7  -3   1 1336.97  190.38
   7   3  -1 1489.04  190.94
   7   3  -1 1614.99  194.41
  -7   3   1 1510.65  198.38
   7   3  -1 1479.16  193.39
  -7   3   1 1525.79  198.20
   5  -3  -1 1473.71  195.24
   5  -3  -1 1589.45  188.49
  -5   3   1 1441.28  194.22
  -5   3   1 1378.31  192.13
  -3  -3   1  811.77  100.41
   3  -3  -1  847.70  106.72
   3  -3  -1  882.16  107.62
  -3  -3   1  815.83  100.79
  -3  -3   1  754.78   98.76
  -3  -3   1  752.42   99.74
  -3   3   1  713.51  102.40
   3   3  -1  709.02  100.06
   1  -3  -1 1890.02  277.51
   1  -3  -1 2425.29  276.41
  -1  -3  -1  804.50  113.08
  -1  -3  -1  906.29  111.32
   1   3   1  808.48  110.92
   1   3   1  832.02  109.71
   1   3   1  975.69  111.09
  -3  -3  -1  619.05   84.29
   3  -3   1  665.57   82.72
  -3  -3  -1  666.76   86.28
  -3  -3  -1  618.00   84.46
   3  -3   1  623.26   82.90
   3   3   1  590.82   84.39
   3   3   1  754.23   82.68
   3   3   1  548.87   82.55
  -3   3  -1  678.32   82.93
   5  -3   1 1482.19  190.49
   5  -3   1 1527.12  189.49
   5  -3   1 1528.37  188.68
   5  -3   1 1548.83  188.90
  -5   3  -1 1289.52  188.37
   7  -3   1 2830.35  312.66
  -7  -3  -1 2402.06  311.09
  -7  -3  -1 2218.73  310.24
  -7  -3  -1 2194.88  308.98
  -7   3  -1 2526.25  310.03
   7   3   1 2280.48  309.88
  -7   3  -1 2556.75  309.54
   9  -3   1 1518.26  198.17
  -9  -3  -1 1760.79  199.86
   9  -3   1 1382.06  200.54
  -9  -3  -1 1691.78  201.68
   9  -3   1 1596.60  195.78
  -9   3  -1 1467.66  195.47
  -9   3  -1 1326.02  198.34
   9   3   1 1632.67  200.09
  -9   3  -1 1361.52  198.08
 -11  -3  -1  829.70  112.00
  11  -3   1  775.35  114.06
 -11  -3  -1  803.72  110.62
 -11  -3  -1  675.98  111.61
  11   3   1  742.63  111.43
 -11   3  -1  891.76  112.04
 -11   3  -1  794.00  111.49
 -11   3  -1  728.02  112.43
  11   3   1  777.91  112.11
 -11   3  -1  957.63  106.95
 -13  -3  -1  717.00  116.65
 -13  -3  -1  651.27  113.03
  13  -3   1  824.75  119.48
  13  -3   1  976.27  116.59
  13   3   1  998.95  116.85
 -13   3  -1  795.64  118.16
  13   3   1  808.35  116.30
 -13   3  -1  845.59  116.15
  13   3   1  705.45  115.82
 -13   3  -1  838.10  116.37
 -13   3  -1  906.58  109.40
 -15  -3  -1  599.29   91.98
  15  -3   1  691.97   99.36
 -15  -3  -1  535.81   91.07
 -15  -3  -1  604.51   95.33
  15  -3   1  654.94   92.62
 -15   3  -1  617.02   93.47
 -15   3  -1  659.31   93.90
 -15   3  -1  605.68   84.10
  15   3   1  706.96   97.08
  15   3   1  692.28   95.33
 -15   3  -1  540.84   94.70
  17  -3   1  807.84  102.79
 -17  -3  -1  598.37   98.42
 -17  -3  -1  671.19  103.63
 -17  -3  -1  631.50   99.81
  17  -3   1  721.52  107.26
 -17   3  -1  656.59   90.15
  17   3   1  696.11  101.94
  17   3   1  624.29  103.63
 -17   3  -1  673.45  101.98
 -17   3  -1  744.56  101.72
 -17   3  -1  544.51  102.60
 -19  -3  -1  210.37   50.12
  19  -3   1  125.57   49.11
 -19  -3  -1  155.02   44.62
 -19  -3  -1  282.39   63.85
  19  -3   1  268.34   53.35
  19   3   1  203.14   50.15
  19   3   1  338.50   59.08
 -19   3  -1  156.64   31.66
  19   3   1  208.65   57.57
 -19   3  -1  216.71   50.76
 -19   3  -1  192.45   53.67
 -19   3  -1  213.76   49.65
  21  -3   1  163.78   54.16
  21  -3   1  183.31   45.95
 -21  -3  -1  157.20   41.25
 -21  -3  -1  147.58   42.55
 -21   3  -1   99.24   43.85
  21   3   1  236.32   61.26
  21   3   1  140.98   44.24
 -21   3  -1  162.58   41.08
 -21   3  -1  128.12   28.57
  23  -3   1  115.04   43.89
 -23  -3  -1   83.59   35.84
 -23  -3  -1  186.00   48.06
  23  -3   1  132.33   50.69
 -23   3  -1  170.45   58.20
  23   3   1  117.70   45.25
  23   3   1  106.70   50.07
 -23   3  -1  136.30   41.06
 -23   3  -1  121.93   25.83
  25  -3   1   80.55   39.66
  25  -3   1  124.03   53.86
 -25  -3  -1   56.73   31.10
 -25   3  -1   39.29   17.75
  25   3   1   44.33   39.45
 -25   3  -1  124.04   38.64
  25   3   1   80.46   40.57
  27  -3   1   82.67   41.68
 -27  -3  -1   43.58   30.23
  27  -3   1   28.30   41.54
 -27   3  -1   83.15   34.10
  27   3   1   56.97   43.10
 -27   3  -1   36.04   17.04
  27   3   1   75.15   40.18
  29  -3   1   62.30   39.02
 -29  -3  -1   28.79   28.64
  29  -3   1   19.22   41.10
  29   3   1   65.41   43.04
 -29   3  -1    9.18   31.78
 -29   3  -1   28.34   15.17
  29   3   1   42.88   39.36
  28  -4  -1  -11.89   36.30
 -28  -4   1    3.22    8.31
 -28  -4   1   14.04   28.21
  28  -4  -1   17.86   33.97
 -28  -4   1   -3.29    5.76
  28   4  -1    4.78   30.89
 -28   4   1   32.15   32.71
  28   4  -1   43.34   40.48
 -28   4   1    4.70   13.66
 -26  -4   1   34.77    8.96
  26  -4  -1   24.24   44.77
 -26  -4   1   -3.99   22.03
  26  -4  -1   26.56   40.71
 -26  -4   1    6.61    7.54
  26   4  -1    2.91   31.51
 -26   4   1   11.13   15.59
 -26   4   1   -1.45   24.08
  26   4  -1    1.81   34.61
  24  -4  -1   76.63   47.22
 -24  -4   1   20.37   24.91
  24  -4  -1   34.78   38.30
 -24  -4   1  103.03   37.72
 -24   4   1   40.27   19.00
  24   4  -1   42.14   35.13
  24   4  -1   16.88   37.17
 -24   4   1   14.15   24.82
 -22  -4   1   83.49   31.72
  22  -4  -1   -2.87   30.89
 -22  -4   1   18.65   24.02
  22  -4  -1    6.76   29.18
 -22   4   1   13.38   22.72
 -22   4   1   26.74   36.31
  22   4  -1   -2.21   26.67
  22   4  -1   23.32   22.84
 -22   4   1   24.35   16.10
  22   4  -1    7.02   28.29
  20  -4  -1   28.38   35.09
  20  -4  -1  -17.70   23.23
 -20  -4   1   19.86   22.47
 -20  -4   1   12.41   23.93
 -20   4   1   26.70   35.82
 -20   4   1    7.20   12.70
  20   4  -1    6.06   24.49
  20   4  -1   10.23   18.44
 -20   4   1   -9.40   18.07
  20   4  -1   11.25   27.89
  18  -4  -1   93.55   36.22
 -18  -4   1  155.61   46.18
 -18  -4   1    6.04   19.85
 -18  -4   1  141.81   38.18
  18  -4  -1  107.51   50.86
 -18   4   1  137.38   42.50
 -18   4   1   40.56   24.46
  18   4  -1   41.20   21.29
  18   4  -1   51.46   32.67
 -18   4   1   29.19   34.09
  18   4  -1   69.25   30.91
 -18   4   1   32.53   18.57
  16  -4  -1  128.66   39.92
  16  -4  -1  169.58   55.28
 -16  -4   1  153.99   43.74
 -16  -4   1  110.89   32.10
 -16  -4   1  102.92   34.43
 -16  -4   1   94.81   18.76
 -16   4   1   98.92   24.41
 -16   4   1   92.87   29.67
 -16   4   1  124.28   42.14
  16   4  -1  151.41   38.87
 -16   4   1  152.24   42.83
  16   4  -1   87.55   32.97
  16   4  -1   81.13   24.98
 -14  -4   1   48.48   21.72
 -14  -4   1  115.20   34.01
 -14  -4   1   70.19   14.78
  14  -4  -1  148.39   37.58
 -14  -4   1  124.52   32.25
  14  -4  -1   78.02   37.93
  14   4  -1   56.34   18.02
 -14   4   1   40.02   29.64
 -14   4   1  116.40   35.93
  14   4  -1   59.08   25.23
 -14   4   1   61.85   23.47
 -14   4   1   20.42   15.81
  14   4  -1   58.15   25.60
 -12  -4   1  241.54   49.31
  12  -4  -1  222.16   39.71
 -12  -4   1  225.92   41.51
 -12  -4   1  160.82   32.18
  12  -4  -1  249.32   56.00
 -12  -4   1   97.00   22.02
 -12   4   1  135.06   28.66
  12   4  -1  106.89   25.25
  12   4  -1  142.70   34.72
 -12   4   1  159.63   32.74
 -12   4   1  235.11   48.60
  12   4  -1  193.16   37.53
 -12   4   1  192.04   49.20
 -10  -4   1   23.86   16.30
 -10  -4   1   22.74    9.38
 -10  -4   1   24.21   17.26
 -10  -4   1   17.85   12.70
  10  -4  -1   28.29   19.72
  10  -4  -1   19.64   22.87
 -10   4   1   27.41   19.45
 -10   4   1   25.72   11.82
  10   4  -1   31.08   15.05
 -10   4   1   33.82   19.92
 -10   4   1   28.60   14.25
  10   4  -1   26.82    9.65
  10   4  -1   19.33   15.22
  -8  -4   1  257.24   40.05
  -8  -4   1  233.23   32.86
   8  -4  -1  328.05   49.55
  -8  -4   1  308.24   39.51
  -8  -4   1  202.17   34.13
   8   4  -1  213.34   31.73
  -8   4   1  155.98   33.56
  -8   4   1  225.02   35.53
  -8   4   1  281.19   44.12
   8   4  -1  250.43   34.22
   8   4  -1  209.32   37.30
  -8   4   1  255.16   49.16
   6  -4  -1  138.22   24.72
  -6  -4   1  141.89   24.13
   6  -4  -1  264.03   39.31
  -6   4   1  182.50   30.73
   6   4  -1  169.82   27.40
  -6   4   1  178.91   33.96
  -6   4   1  200.06   26.13
  -6   4   1  119.36   25.19
  -4  -4   1   45.19   11.69
   4  -4  -1   45.81   11.28
   4  -4  -1   79.93   25.17
  -4  -4   1   42.63   11.49
   4  -4  -1   79.80   22.59
  -4  -4   1   36.47    8.76
  -4  -4   1   73.17   14.43
   4   4  -1   70.82   16.48
  -4   4   1   46.05   12.04
  -4   4   1   44.21   10.09
  -4   4   1   33.15   11.98
  -4   4   1   33.92   16.95
   4   4  -1   34.72   11.33
   2  -4  -1  166.56   31.68
   2  -4  -1   90.58   15.42
  -2  -4   1  108.30   18.56
   2  -4  -1  107.32   25.53
  -2   4   1   96.73   19.07
   2   4  -1   92.59   17.49
  -2   4   1   60.25   22.02
   0  -4  -1  374.07   46.33
   0  -4  -1  315.61   51.62
   0  -4  -1  312.68   47.33
   0  -4   1  281.27   44.89
   0  -4  -1  360.08   44.16
   0   4   1  301.17   45.02
   0   4  -1  340.10   46.12
  -2  -4  -1  160.54   22.40
  -2  -4  -1  164.40   25.58
   2  -4   1  125.69   22.28
  -2  -4  -1  144.84   22.86
  -2  -4  -1   94.39   28.97
  -2   4  -1  141.16   23.63
   2   4   1  127.66   21.16
  -4  -4  -1   20.27   12.85
   4  -4   1   33.10    9.14
   4  -4   1   21.74    8.38
  -4  -4  -1   21.64   10.21
   4  -4   1   18.33    9.47
  -4  -4  -1   30.94   12.08
   4  -4   1   33.53   12.12
  -4   4  -1    6.95    9.86
   4   4   1   19.68    7.46
   4   4   1   25.21    7.48
   4   4   1   23.08   10.71
   4   4   1   16.89    6.64
  -4   4  -1   28.65   10.28
   6  -4   1  202.33   32.02
  -6  -4  -1  254.17   35.48
   6  -4   1  170.12   31.38
  -6  -4  -1  207.28   33.50
  -6  -4  -1  192.34   35.40
   6  -4   1  219.79   33.10
   6   4   1  206.06   28.70
   6   4   1  201.08   33.79
   6   4   1  238.25   31.50
  -6   4  -1  147.64   31.46
   6   4   1  262.74   31.85
  -8  -4  -1  168.26   32.49
  -8  -4  -1  158.09   34.76
   8  -4   1  123.86   28.02
  -8  -4  -1  184.17   31.15
   8  -4   1  220.43   34.41
   8  -4   1  120.87   25.82
   8  -4   1  211.01   34.83
   8   4   1  193.73   28.49
   8   4   1  163.85   27.72
  -8   4  -1  135.75   28.57
  -8   4  -1  160.62   29.09
   8   4   1  151.35   30.18
  -8   4  -1  150.86   26.55
  -8   4  -1  178.51   29.82
  10  -4   1  201.00   35.83
 -10  -4  -1  203.46   37.36
 -10  -4  -1  188.02   40.74
  10  -4   1  265.75   43.73
 -10  -4  -1  160.84   34.43
  10  -4   1  327.60   53.50
 -10   4  -1  164.91   33.49
  10   4   1  169.91   34.49
 -10   4  -1  208.36   36.33
  10   4   1  189.12   37.00
 -10   4  -1  279.05   46.68
  10   4   1  172.75   33.36
 -10   4  -1  201.02   38.55
 -12  -4  -1  171.15   38.83
  12  -4   1  123.54   30.33
  12  -4   1  196.02   44.13
 -12  -4  -1  126.65   30.36
  12  -4   1  198.14   38.21
 -12  -4  -1   57.18   27.30
  12   4   1  184.77   30.83
 -12   4  -1   76.58   27.70
  12   4   1  122.16   32.32
  12   4   1  121.42   32.55
 -12   4  -1  197.35   39.05
 -12   4  -1  173.15   40.58
 -12   4  -1   86.03   23.53
 -14  -4  -1  139.72   32.81
  14  -4   1  128.99   36.13
 -14  -4  -1  135.96   39.67
 -14  -4  -1   71.50   27.91
  14  -4   1   81.05   28.10
  14  -4   1  130.83   38.05
  14   4   1  104.04   33.05
 -14   4  -1   57.02   26.45
 -14   4  -1  137.89   35.27
  14   4   1   97.51   28.28
 -14   4  -1   40.63   18.91
  14   4   1   85.46   30.47
 -14   4  -1  140.23   39.87
 -16  -4  -1   90.84   34.99
  16  -4   1  138.15   38.74
 -16  -4  -1  171.37   43.64
  16  -4   1  168.46   44.20
 -16  -4  -1  149.36   38.63
  16  -4   1  182.35   51.61
  16   4   1  112.68   38.78
  16   4   1  188.89   40.20
 -16   4  -1  240.49   49.01
 -16   4  -1  156.18   46.05
 -16   4  -1  147.37   40.73
  16   4   1  151.29   41.35
 -18  -4  -1   65.61   29.62
  18  -4   1   45.44   33.26
 -18  -4  -1   69.74   28.71
 -18  -4  -1   23.06   24.56
  18  -4   1   13.82   25.04
  18  -4   1    6.39   28.85
 -18   4  -1  114.69   35.90
 -18   4  -1   13.43   24.00
  18   4   1   54.17   30.66
  18   4   1   44.51   30.05
 -18   4  -1   39.42   34.59
  18   4   1   38.15   25.33
 -18   4  -1   59.40   19.37
  20  -4   1   -6.95   21.23
  20  -4   1   10.20   30.89
  20  -4   1   20.57   30.49
 -20  -4  -1   55.04   27.57
 -20  -4  -1   16.01   23.29
  20   4   1   10.32   25.11
  20   4   1   -5.11   23.55
 -20   4  -1    7.25   22.77
 -20   4  -1   13.84   31.35
 -20   4  -1   23.70   15.24
  22  -4   1   33.76   31.96
  22  -4   1   60.32   41.52
 -22  -4  -1   56.55   28.96
 -22  -4  -1   43.82   28.82
 -22   4  -1    0.52   24.75
  22   4   1   27.31   32.46
 -22   4  -1  134.88   48.07
 -22   4  -1   39.67   17.91
  22   4   1   39.11   35.15
 -24  -4  -1   29.04   32.68
  24  -4   1    6.96   28.34
 -24  -4  -1   -3.97   21.41
  24  -4   1   21.79   38.27
  24   4   1    7.59   30.95
 -24   4  -1   24.92   47.83
 -24   4  -1   37.57   31.94
  24   4   1   20.16   32.76
 -24   4  -1   16.68   15.87
 -26  -4  -1   39.16   26.99
  26  -4   1  -11.15   30.59
  26  -4   1   15.43   43.27
 -26   4  -1    1.09   13.08
 -26   4  -1    1.31   27.96
  26   4   1   29.93   36.60
  26   4   1   -3.75   31.61
  28  -4   1    5.97   33.64
  28  -4   1   -3.06   39.42
 -28  -4  -1    1.70   24.31
 -28   4  -1    5.04   12.54
  28   4   1   -3.83   35.45
  28   4   1   -6.25   32.01
 -28   4  -1   25.61   32.70
  27  -5  -1   16.47   44.46
 -27  -5   1   23.27   26.20
  27  -5  -1   51.81   42.64
  27   5  -1   18.78   35.36
  27   5  -1   32.82   37.84
 -27   5   1   20.94   30.96
 -27   5   1   29.10   18.54
  25  -5  -1  116.44   53.57
 -25  -5   1   58.44   32.23
 -25  -5   1  118.07   42.90
  25  -5  -1  101.73   48.72
  25   5  -1  103.19   42.04
  25   5  -1  117.43   45.89
 -25   5   1  129.67   43.22
 -25   5   1   66.36   25.42
 -23  -5   1  104.18   38.71
 -23  -5   1  113.33   17.73
  23  -5  -1  135.94   47.51
 -23  -5   1   79.32   33.54
  23  -5  -1  117.90   55.90
 -23   5   1  115.09   46.38
 -23   5   1   76.56   24.97
  23   5  -1   93.43   39.64
  23   5  -1  104.95   38.82
 -23   5   1   71.31   32.82
  21  -5  -1  147.62   49.74
 -21  -5   1  209.67   53.80
 -21  -5   1  131.48   38.85
  21  -5  -1  143.03   60.10
 -21  -5   1  148.87   24.23
 -21   5   1  162.20   50.35
 -21   5   1  136.05   41.54
 -21   5   1  132.46   33.11
  21   5  -1  257.28   40.33
  21   5  -1  186.70   49.24
  21   5  -1  193.45   48.46
 -19  -5   1  316.17   55.33
 -19  -5   1  334.32   62.31
 -19  -5   1  330.38   75.62
  19  -5  -1  322.97   64.44
 -19  -5   1  262.39   40.78
  19  -5  -1  297.12   83.96
  19  -5  -1  329.37   55.51
  19   5  -1  343.85   51.48
 -19   5   1  254.46   72.03
 -19   5   1  226.18   54.78
  19   5  -1  338.96   62.78
  19   5  -1  287.22   59.85
 -17  -5   1  438.70   75.09
  17  -5  -1  508.50   79.50
 -17  -5   1  373.10   58.54
  17  -5  -1  605.64   93.77
  17  -5  -1  575.02   73.67
 -17  -5   1  378.25   68.60
 -17  -5   1  536.72   79.41
 -17   5   1  426.25   63.87
  17   5  -1  427.90   74.78
 -17   5   1  420.40   69.58
  17   5  -1  453.28   72.60
 -17   5   1  495.97   76.85
 -17   5   1  392.56   75.67
  17   5  -1  430.34   65.35
 -15  -5   1  645.16   94.39
  15  -5  -1  787.83   97.14
  15  -5  -1  646.57  103.88
 -15  -5   1  550.53   89.24
 -15  -5   1  558.50   77.35
 -15  -5   1  626.14   86.51
  15   5  -1  600.73   87.02
  15   5  -1  591.93   81.33
 -15   5   1  512.27   92.45
 -15   5   1  528.59   90.87
 -15   5   1  527.25   84.64
 -15   5   1  544.58   81.19
  15   5  -1  644.07   90.80
 -13  -5   1  581.60   66.87
 -13  -5   1  626.65   74.54
 -13  -5   1  542.44   77.71
 -13  -5   1  493.99   78.64
  13  -5  -1  447.84   78.44
  13  -5  -1  445.75   85.24
 -13   5   1  382.13   75.66
  13   5  -1  590.96   78.16
 -13   5   1  361.40   70.52
 -13   5   1  351.62   77.18
  13   5  -1  489.90   72.22
  13   5  -1  546.75   68.65
 -11  -5   1  775.94   97.66
  11  -5  -1  702.57   99.78
 -11  -5   1  765.83   89.12
 -11  -5   1  710.24   98.82
  11  -5  -1  548.56  103.53
 -11   5   1  563.38   91.59
 -11   5   1  541.80   99.19
  11   5  -1  821.30   97.68
  11   5  -1  664.51   90.95
 -11   5   1  552.75   90.97
  11   5  -1  727.53   88.94
  -9  -5   1 1138.02  138.18
   9  -5  -1 1001.62  149.56
  -9  -5   1 1021.17  141.74
   9  -5  -1 1110.45  138.07
  -9  -5   1 1065.17  140.87
  -9  -5   1  964.64  135.25
   9   5  -1 1099.18  140.28
  -9   5   1 1017.12  138.14
  -9   5   1 1035.83  137.32
   7  -5  -1 1616.42  203.34
  -7  -5   1 1468.47  193.61
  -7  -5   1 1323.54  193.47
  -7  -5   1 1347.12  190.39
  -7  -5   1 1613.95  191.46
   7   5  -1 1494.58  193.00
  -7   5   1 1417.50  190.74
  -7   5   1 1680.34  190.30
  -5  -5   1 2128.11  255.90
  -5  -5   1 1976.68  256.22
   5  -5  -1 2304.86  263.52
   5  -5  -1 1816.74  254.97
  -5  -5   1 2295.42  257.16
   5  -5  -1 1680.43  262.46
   5   5  -1 1934.62  255.45
   5   5  -1 2054.47  255.93
  -5   5   1 1867.09  257.01
   3  -5  -1 1307.98  212.87
   3  -5  -1 1495.85  207.11
  -3  -5   1 1831.45  209.06
   3  -5  -1 1546.85  214.40
  -3  -5   1 1684.91  207.40
   3   5  -1 1725.06  209.18
  -3   5   1 1772.98  210.12
   1  -5  -1 2158.79  238.50
   1  -5  -1 1787.01  243.59
   1  -5  -1 1776.61  240.32
  -1  -5   1 1595.36  237.12
   1  -5  -1 2125.61  236.48
   1   5  -1 1680.69  237.87
  -1  -5  -1 1535.11  188.52
  -1  -5  -1 1263.38  189.22
  -1  -5  -1 1466.50  187.21
   1   5   1 1587.04  188.63
  -3  -5  -1 1640.84  203.68
  -3  -5  -1 1471.98  201.06
  -3  -5  -1 1549.23  201.18
   3  -5   1 1646.60  201.77
  -3   5  -1 1537.87  202.20
   5  -5   1 1651.57  231.22
   5  -5   1 1924.77  229.17
   5  -5   1 1738.59  230.31
  -5  -5  -1 1811.76  231.59
  -5  -5  -1 1907.41  230.87
   5  -5   1 1753.48  228.47
   5   5   1 1861.41  231.03
  -5   5  -1 1683.71  230.81
  -7  -5  -1 1476.90  197.10
   7  -5   1 1702.88  198.75
  -7  -5  -1 1450.07  195.95
  -7  -5  -1 1449.86  194.62
   7   5   1 1434.37  195.02
  -7   5  -1 1671.44  196.01
   7   5   1 1400.39  190.98
   7   5   1 1465.17  190.63
  -9  -5  -1  861.36  100.39
  -9  -5  -1  722.02   96.39
   9  -5   1  689.11   99.83
   9  -5   1  800.01   96.20
  -9  -5  -1  628.98   97.04
   9   5   1  616.02   92.66
  -9   5  -1  556.22   95.39
  -9   5  -1  783.49   95.43
   9   5   1  667.36   96.73
 -11  -5  -1  583.38   74.96
 -11  -5  -1  506.90   75.85
  11  -5   1  490.60   78.44
  11  -5   1  551.90   74.09
 -11  -5  -1  620.78   77.86
 -11   5  -1  412.73   68.42
 -11   5  -1  477.86   70.41
 -11   5  -1  470.08   74.31
  11   5   1  595.47   72.74
 -11   5  -1  395.43   68.10
 -13  -5  -1  519.37   72.73
  13  -5   1  431.53   68.34
 -13  -5  -1  590.82   73.25
  13  -5   1  381.32   71.62
  13  -5   1  584.75   74.12
 -13  -5  -1  511.58   70.10
 -13   5  -1  393.25   65.30
 -13   5  -1  290.40   63.24
 -13   5  -1  356.14   68.03
 -13   5  -1  370.62   62.61
  13   5   1  488.18   68.07
  13   5   1  568.95   73.59
 -15  -5  -1  507.67   80.77
  15  -5   1  659.00   83.18
 -15  -5  -1  558.54   80.76
 -15  -5  -1  520.64   83.24
  15  -5   1  501.87   86.51
 -15   5  -1  445.00   78.37
 -15   5  -1  544.62   82.05
 -15   5  -1  374.21   74.91
 -15   5  -1  494.57   72.95
  15   5   1  582.66   83.83
  15   5   1  489.40   78.97
 -17  -5  -1  462.59   72.53
  17  -5   1  473.66   79.85
  17  -5   1  454.17   70.94
 -17  -5  -1  398.22   68.94
 -17  -5  -1  375.64   74.73
 -17   5  -1  420.23   72.28
  17   5   1  386.44   71.12
 -17   5  -1  394.42   60.03
 -17   5  -1  358.13   68.53
 -17   5  -1  366.91   66.09
  17   5   1  384.19   68.16
 -19  -5  -1  266.44   50.99
 -19  -5  -1  205.39   49.55
  19  -5   1  198.85   59.39
  19  -5   1  266.29   54.85
 -19   5  -1  154.87   45.89
  19   5   1  179.16   50.11
 -19   5  -1  224.94   56.88
 -19   5  -1  180.35   39.17
  19   5   1  296.06   58.45
  21  -5   1   81.56   37.41
 -21  -5  -1  111.24   36.58
 -21  -5  -1  169.96   42.88
  21  -5   1  117.56   51.68
 -21   5  -1   72.56   32.93
 -21   5  -1   94.10   26.28
  21   5   1  128.43   41.21
  21   5   1  128.85   42.05
 -21   5  -1  156.86   51.22
  21   5   1  180.39   37.67
 -23  -5  -1  179.66   45.19
  23  -5   1   91.43   39.20
  23  -5   1  173.42   63.39
 -23  -5  -1   70.45   32.41
  23   5   1  135.33   48.02
  23   5   1   89.28   40.53
 -23   5  -1   90.79   35.20
 -23   5  -1  195.63   53.88
 -23   5  -1   82.04   25.32
 -25  -5  -1   55.28   32.73
  25  -5   1  126.40   53.10
  25  -5   1  115.21   43.82
 -25   5  -1   60.26   23.45
 -25   5  -1  142.69   56.69
  25   5   1   44.01   38.65
 -25   5  -1   46.25   34.60
  25   5   1  108.51   43.44
 -27  -5  -1   53.36   28.60
  27  -5   1   29.59   37.95
  27  -5   1   60.09   57.55
 -27   5  -1   14.34   16.54
  27   5   1   93.59   43.51
 -27   5  -1   15.31   29.79
  27   5   1   -6.92   29.19
 -26  -6   1  -16.49   20.31
  26  -6  -1   -3.31   33.20
  26  -6  -1   16.80   50.81
  26   6  -1    8.22   28.40
  26   6  -1    5.29   30.63
 -26   6   1   23.46   18.86
 -26   6   1   -0.63   24.74
  24  -6  -1   36.26   48.47
 -24  -6   1   -1.57   23.20
 -24  -6   1  104.32   38.78
  24  -6  -1   -3.85   31.53
 -24   6   1   27.76   43.13
  24   6  -1   29.87   23.85
 -24   6   1  -18.49   20.81
  24   6  -1   27.81   30.90
 -24   6   1    3.61   14.89
  24   6  -1   16.22   31.94
 -22  -6   1   14.49   29.35
  22  -6  -1    0.11   37.66
 -22  -6   1   -5.38   21.76
  22  -6  -1   17.62   33.53
 -22  -6   1   -1.34    6.65
  22   6  -1  -10.34   16.52
 -22   6   1    9.67   35.68
  22   6  -1   12.59   28.12
 -22   6   1   -8.90   20.82
 -22   6   1   10.98   17.21
  22   6  -1    8.72   24.95
 -20  -6   1   16.02   26.50
 -20  -6   1    2.99    7.84
  20  -6  -1  -15.29   27.42
 -20  -6   1    5.24   21.86
  20  -6  -1  -20.91   26.38
 -20   6   1   -3.31   20.14
  20   6  -1    5.92   16.34
 -20   6   1   -0.70   31.47
  20   6  -1    3.83   21.68
 -20   6   1    4.59   16.00
  20   6  -1   64.39   30.59
  18  -6  -1   32.63   40.40
 -18  -6   1   25.24    9.34
 -18  -6   1   11.57   20.66
 -18  -6   1   30.86   27.24
  18  -6  -1   35.00   30.81
  18  -6  -1   20.68   25.13
 -18  -6   1   85.73   35.10
 -18   6   1    8.44   17.08
  18   6  -1   28.91   16.56
 -18   6   1    7.56   19.08
  18   6  -1   21.76   22.97
  18   6  -1   11.14   20.12
 -18   6   1   40.40   35.32
 -16  -6   1   59.46   26.66
 -16  -6   1   55.89   14.17
 -16  -6   1   95.87   33.44
  16  -6  -1  178.17   54.38
  16  -6  -1   63.39   26.28
  16  -6  -1  118.78   37.87
 -16  -6   1  162.11   45.15
 -16   6   1   44.57   21.79
 -16   6   1  173.53   48.47
  16   6  -1   51.89   17.26
  16   6  -1   63.55   23.65
 -16   6   1   40.88   19.33
 -16   6   1  123.77   40.67
  16   6  -1   78.37   28.38
  14  -6  -1   42.57   21.14
 -14  -6   1  134.35   39.43
  14  -6  -1   83.78   31.33
 -14  -6   1   19.70   11.33
 -14  -6   1   64.67   26.91
  14  -6  -1  113.74   48.03
 -14  -6   1   44.83   23.16
 -14   6   1   58.56   20.65
  14   6  -1   34.47   23.50
  14   6  -1   49.19   13.98
 -14   6   1   49.41   19.80
 -14   6   1  147.32   42.50
  14   6  -1   68.24   18.47
 -14   6   1  101.04   32.71
 -12  -6   1   22.94   10.49
  12  -6  -1   34.43   33.58
 -12  -6   1   61.53   22.70
  12  -6  -1   34.41   23.62
  12  -6  -1   14.21   16.33
 -12  -6   1   51.18   23.27
 -12  -6   1   18.70   17.44
 -12   6   1   13.84   13.22
  12   6  -1   24.60   19.05
 -12   6   1   33.53   19.70
 -12   6   1   13.05   14.29
 -12   6   1   58.81   27.08
  10  -6  -1   -8.32   11.02
  10  -6  -1    2.63   22.99
  10  -6  -1   14.54   17.98
 -10  -6   1    6.75   13.24
 -10  -6   1   -6.57   13.72
 -10  -6   1   12.15   14.68
 -10  -6   1   -0.40    8.44
 -10   6   1   -5.98   16.66
  10   6  -1   14.91   14.91
 -10   6   1   -0.48   13.20
   8  -6  -1   83.29   26.82
   8  -6  -1   44.76   15.48
  -8  -6   1   38.95   13.38
  -8  -6   1   71.33   20.12
  -8  -6   1   42.72   16.18
   8  -6  -1   83.78   34.19
  -8  -6   1   61.16   20.96
  -8   6   1   52.04   24.24
  -8   6   1   29.82   15.46
   6  -6  -1  262.81   53.12
  -6  -6   1  171.64   29.57
  -6  -6   1  155.02   25.42
   6  -6  -1  142.73   24.67
   6  -6  -1  185.78   33.16
  -6  -6   1  136.60   23.91
  -6  -6   1  125.05   24.19
   6   6  -1  100.61   21.65
  -6   6   1   68.94   23.92
   6   6  -1  110.05   24.49
  -6   6   1  126.04   34.37
  -4  -6   1  127.18   21.74
   4  -6  -1  106.17   20.44
  -4  -6   1  118.49   20.23
   4  -6  -1  115.57   34.79
   4  -6  -1  190.57   36.20
   4   6  -1   87.07   22.53
  -4   6   1   58.59   22.79
   2  -6  -1   25.67   11.32
   2  -6  -1   21.44    9.25
   2  -6  -1    4.21   12.97
  -2  -6   1   23.76   11.13
   2  -6  -1   31.92   17.78
  -2   6   1   10.03   12.08
   2   6  -1   14.61   12.59
   0  -6  -1  115.69   19.98
   0  -6  -1  110.24   26.57
   0  -6  -1  132.45   32.51
   0  -6   1   86.62   20.65
   0  -6  -1  109.56   22.04
   0   6   1   77.25   20.63
   0   6  -1   89.87   22.84
   2  -6   1   55.44   17.21
  -2  -6  -1  120.91   21.06
  -2  -6  -1   70.15   26.12
  -2  -6  -1   87.18   19.17
  -2  -6  -1  100.13   24.06
  -2   6  -1   84.92   22.32
   2   6   1   61.61   18.05
  -4  -6  -1  101.59   21.23
   4  -6   1   24.15   13.02
   4  -6   1   54.18   10.96
  -4  -6  -1   47.61   19.50
   4  -6   1   63.97   16.77
  -4  -6  -1   18.43   14.29
  -4  -6  -1   41.02   14.70
   4   6   1   40.32   13.67
  -4   6  -1   32.12   17.18
   6  -6   1  147.89   31.99
   6  -6   1   76.42   18.00
  -6  -6  -1  117.99   27.54
  -6  -6  -1   63.05   19.75
   6  -6   1  127.63   23.01
   6  -6   1   48.44   17.96
  -6  -6  -1   82.53   25.79
  -6   6  -1  102.95   22.75
   6   6   1   91.50   18.73
   6   6   1   93.16   22.59
  -6   6  -1   53.31   20.61
  -8  -6  -1   10.20   13.23
   8  -6   1   52.85   23.17
  -8  -6  -1   42.58   19.35
   8  -6   1   18.86   13.83
  -8  -6  -1   11.57   16.70
   8  -6   1   22.13   17.23
  -8   6  -1   44.75   18.79
  -8   6  -1    4.30   13.25
   8   6   1   25.43   14.77
   8   6   1   23.89   10.59
  10  -6   1    2.32   17.95
 -10  -6  -1    8.73   12.92
  10  -6   1  -14.00   15.46
 -10  -6  -1  -10.59   13.12
  10  -6   1   -3.77   12.54
 -10  -6  -1   22.55   17.84
 -10   6  -1   -4.68   12.73
 -10   6  -1   -1.58   13.21
  10   6   1    0.71   13.08
  10   6   1    0.27    7.12
  10   6   1   -3.44    8.44
  12  -6   1   -8.42   14.13
 -12  -6  -1   -0.85   15.23
 -12  -6  -1    0.04   16.84
  12  -6   1  -15.51   18.05
  12  -6   1    5.51   20.03
 -12  -6  -1   -2.16   13.73
 -12   6  -1    8.51   18.50
  12   6   1    7.87   17.17
 -12   6  -1   -3.54   13.02
  12   6   1    0.48    9.52
  12   6   1    2.19   11.90
  14  -6   1   40.79   23.27
  14  -6   1   81.74   35.71
 -14  -6  -1   61.95   25.71
  14  -6   1   90.30   31.93
 -14  -6  -1   43.42   24.47
 -14  -6  -1   33.98   23.51
  14   6   1   44.05   20.41
 -14   6  -1   72.92   28.92
  14   6   1   28.16   15.36
  14   6   1   66.26   28.24
 -14   6  -1   28.26   19.01
 -16  -6  -1   10.37   22.25
  16  -6   1   43.40   26.13
  16  -6   1   71.10   36.55
  16  -6   1   74.05   34.46
 -16  -6  -1   87.94   33.02
 -16  -6  -1   51.55   25.40
  16   6   1   16.41   19.04
  16   6   1   33.59   26.04
  16   6   1   42.00   18.59
 -16   6  -1   28.50   18.30
 -16   6  -1   97.05   32.52
 -16   6  -1   71.73   27.34
 -16   6  -1   43.11   21.46
 -18  -6  -1    1.07   20.42
  18  -6   1   17.59   31.05
 -18  -6  -1   -0.03   26.16
  18  -6   1   13.46   23.92
  18  -6   1   -1.15   29.50
 -18  -6  -1   30.05   24.53
  18   6   1   17.50   21.39
 -18   6  -1   16.01   16.86
 -18   6  -1    8.51   24.07
  18   6   1    0.49   16.38
  18   6   1   11.80   23.80
 -18   6  -1   17.62   20.86
 -20  -6  -1   -1.97   20.10
  20  -6   1   12.28   32.41
 -20  -6  -1   -7.65   19.81
  20  -6   1   13.80   26.02
 -20   6  -1  -10.52   18.60
 -20   6  -1    2.38   25.38
  20   6   1    2.89   22.89
  20   6   1   19.79   20.48
  20   6   1    9.44   25.00
 -20   6  -1   -4.60   15.96
 -22  -6  -1   61.72   29.14
  22  -6   1   27.59   41.31
 -22  -6  -1   38.91   28.64
  22  -6   1   14.65   30.53
 -22   6  -1    4.14   17.04
  22   6   1    3.16   25.28
 -22   6  -1   16.55   24.73
  22   6   1   32.58   24.36
  22   6   1    2.72   26.97
 -22   6  -1    7.57   34.27
  24  -6   1   23.90   33.70
  24  -6   1   -5.61   40.02
 -24  -6  -1   16.62   27.44
 -24  -6  -1   49.18   28.87
  24   6   1   -4.44   26.50
  24   6   1   19.89   32.80
 -24   6  -1   19.54   19.24
 -24   6  -1   45.57   40.52
 -24   6  -1    5.53   24.81
 -26  -6  -1   -1.85   25.16
  26  -6   1   27.64   35.70
  26  -6   1   21.65   44.98
 -26   6  -1  -18.39   31.05
 -26   6  -1   12.48   28.28
  26   6   1   14.77   30.80
  26   6   1    9.85   31.94
 -26   6  -1   11.51   18.15
 -25  -7   1   40.66   29.72
 -25   7   1   63.32   30.34
  23  -7  -1   30.00   47.42
 -23  -7   1   40.04   30.15
 -23  -7   1   41.47   35.34
  23  -7  -1   87.78   41.10
 -23   7   1   27.38   20.93
  23   7  -1   64.32   32.89
 -23   7   1   78.82   28.15
  23   7  -1   86.53   28.76
 -23   7   1  -17.44   23.27
 -21  -7   1   87.94   33.29
 -21  -7   1  104.89   14.75
  21  -7  -1   55.87   38.41
 -21  -7   1  101.45   35.84
  21  -7  -1   84.03   58.78
  21   7  -1   86.67   20.43
  21   7  -1  127.06   29.22
 -21   7   1   54.48   37.96
 -21   7   1   35.52   23.52
 -21   7   1   87.58   27.33
  21   7  -1   56.11   33.96
 -19  -7   1  107.73   39.17
 -19  -7   1  167.12   46.50
  19  -7  -1  347.14   86.17
  19  -7  -1  231.73   54.42
 -19  -7   1  163.50   24.67
  19   7  -1  215.65   32.21
  19   7  -1  114.40   32.55
 -19   7   1  154.09   36.24
 -19   7   1  238.98   50.40
  19   7  -1  148.23   43.13
 -19   7   1  155.89   37.89
 -17  -7   1  273.68   54.06
 -17  -7   1  400.41   62.58
  17  -7  -1  301.08   61.14
  17  -7  -1  368.11   87.09
 -17  -7   1  226.66   37.38
 -17  -7   1  321.29   57.18
  17   7  -1  226.90   40.76
  17   7  -1  291.74   39.86
 -17   7   1  230.32   43.28
 -17   7   1  228.23   45.46
  17   7  -1  277.25   56.38
 -17   7   1  335.72   50.45
 -15  -7   1  257.46   51.73
  15  -7  -1  351.39   52.60
 -15  -7   1  399.22   62.08
  15  -7  -1  360.64   84.19
 -15  -7   1  231.71   39.07
  15  -7  -1  308.30   60.60
 -15  -7   1  278.66   54.21
  15   7  -1  295.48   53.90
 -15   7   1  260.96   41.29
 -15   7   1  297.70   44.03
 -15   7   1  230.42   45.84
 -15   7   1  267.22   66.45
  13  -7  -1  457.29   90.33
  13  -7  -1  345.10   51.77
 -13  -7   1  251.25   53.14
 -13  -7   1  294.06   43.28
  13  -7  -1  283.60   56.66
 -13  -7   1  304.63   52.46
 -13  -7   1  440.54   58.80
  13   7  -1  287.89   53.26
 -13   7   1  305.73   60.40
 -13   7   1  255.71   48.54
  11  -7  -1  391.09   60.44
 -11  -7   1  303.08   55.30
  11  -7  -1  448.76   54.57
 -11  -7   1  336.52   57.61
 -11  -7   1  358.62   55.04
 -11  -7   1  318.13   48.04
  11  -7  -1  402.46   85.16
 -11   7   1  267.21   60.02
  11   7  -1  303.60   53.57
 -11   7   1  341.94   53.68
  -9  -7   1  422.33   70.98
  -9  -7   1  459.21   66.85
   9  -7  -1  589.53   88.13
  -9  -7   1  536.26   74.04
  -9  -7   1  470.55   70.42
   9  -7  -1  594.11   77.43
   9  -7  -1  551.24   69.84
  -9   7   1  373.21   75.01
  -9   7   1  514.85   71.59
  -7  -7   1  480.20   68.74
   7  -7  -1  627.64   87.59
  -7  -7   1  459.86   71.59
  -7  -7   1  577.30   70.91
  -7  -7   1  540.97   71.69
  -7   7   1  627.68   74.27
   7   7  -1  451.86   68.06
  -7   7   1  382.82   74.64
  -5  -7   1  684.20   98.41
   5  -7  -1  849.30  105.22
  -5  -7   1  667.78   98.04
  -5  -7   1  839.63   97.78
   5  -7  -1  723.28   97.88
   5  -7  -1  732.56  109.73
  -5  -7   1  735.97   98.13
   5   7  -1  667.93   99.17
  -5   7   1  794.88  102.12
   3  -7  -1  587.08   84.56
   3  -7  -1  652.58   89.97
   3  -7  -1  511.69   91.00
   3  -7  -1  585.76   82.81
  -3  -7   1  673.17   85.14
  -3  -7   1  631.01   81.89
  -3   7   1  629.89   86.88
   3   7  -1  728.04   87.16
  -1  -7   1  699.80   86.76
   1  -7  -1  523.01   88.54
   1  -7  -1  649.71   91.02
   1  -7  -1  568.17   83.31
   1  -7  -1  627.77   84.89
   1   7  -1  739.70   88.59
  -1   7   1  631.60   87.10
   1  -7   1  664.03   89.45
  -1  -7  -1  655.32   87.11
  -1  -7  -1  543.78   89.44
  -1   7  -1  653.28   90.59
   1   7   1  732.90   89.54
  -3  -7  -1  669.01   94.38
  -3  -7  -1  709.44   93.88
  -3  -7  -1  597.66   96.54
   3   7   1  840.19   95.50
  -3   7  -1  672.19   96.89
  -5  -7  -1  654.68   98.44
   5  -7   1  824.15   95.07
  -5  -7  -1  678.32  100.47
  -5  -7  -1  665.95  102.66
   5  -7   1  709.67  101.39
   5   7   1  766.03   98.19
  -5   7  -1  775.23  102.22
  -7  -7  -1  459.13   68.65
   7  -7   1  558.87   71.40
  -7  -7  -1  485.02   64.28
  -7  -7  -1  472.26   66.52
   7   7   1  455.59   60.50
   7   7   1  388.01   62.27
  -7   7  -1  339.66   60.48
  -9  -7  -1  377.05   57.57
   9  -7   1  443.77   56.12
  -9  -7  -1  311.48   60.33
  -9  -7  -1  369.04   59.45
   9  -7   1  375.65   63.67
  -9   7  -1  385.81   58.27
  -9   7  -1  307.20   57.20
   9   7   1  379.43   51.49
   9   7   1  321.77   55.74
 -11  -7  -1  288.62   51.17
  11  -7   1  335.98   60.18
 -11  -7  -1  253.64   56.01
 -11  -7  -1  288.00   53.99
  11  -7   1  344.66   51.38
 -11   7  -1  319.08   50.97
  11   7   1  296.99   51.74
 -11   7  -1  276.80   54.60
  13  -7   1  257.33   61.53
 -13  -7  -1  255.01   49.19
 -13  -7  -1  369.28   53.99
  13  -7   1  417.97   56.92
  13  -7   1  249.42   48.44
 -13  -7  -1  264.96   55.52
 -13   7  -1  163.81   44.07
  13   7   1  256.59   37.85
  13   7   1  253.69   49.99
 -13   7  -1  315.35   53.12
  13   7   1  255.94   39.34
  15  -7   1  277.22   48.88
 -15  -7  -1  167.90   46.04
 -15  -7  -1  334.54   51.57
  15  -7   1  237.00   59.67
 -15  -7  -1  248.49   47.86
  15   7   1  176.13   45.46
  15   7   1  232.10   35.65
 -15   7  -1  166.62   41.61
  15   7   1  185.01   37.07
 -15   7  -1  241.33   56.46
 -17  -7  -1  323.17   92.84
  17  -7   1  307.27   55.09
  17  -7   1  293.48   71.19
 -17  -7  -1  250.46   56.77
 -17  -7  -1  325.59   56.34
 -17   7  -1  186.31   45.30
  17   7   1  223.56   53.23
  17   7   1  234.74   44.73
  17   7   1  257.81   42.57
 -19  -7  -1  134.76   36.78
 -19  -7  -1  108.01   38.79
  19  -7   1   90.12   35.47
  19  -7   1  186.49   52.92
 -19   7  -1   59.31   25.07
  19   7   1  119.00   39.41
  19   7   1  168.17   31.00
  19   7   1  120.44   30.63
 -21  -7  -1   75.72   29.71
 -21  -7  -1   25.99   28.75
  21  -7   1   48.34   32.85
  21  -7   1   45.93   45.86
  21   7   1  100.94   25.60
  21   7   1   70.29   33.24
 -21   7  -1   63.53   23.57
 -21   7  -1   34.30   22.26
  21   7   1   68.45   26.92
 -23  -7  -1  127.27   38.11
 -23  -7  -1   27.67   28.53
  23  -7   1   33.81   47.57
  23  -7   1   45.80   36.07
  23   7   1   71.88   33.62
 -23   7  -1   14.78   20.66
  23   7   1   80.70   31.10
 -23   7  -1   -5.36   18.40
 -23   7  -1   12.76   20.63
 -22  -8   1   90.92   37.16
  22  -8  -1   54.96   37.24
 -22  -8   1    2.68   26.09
  22  -8  -1   54.19   56.03
 -22   8   1    7.87   20.35
  20  -8  -1  -37.67   33.98
  20  -8  -1   -6.41   28.49
 -20  -8   1   38.43   31.79
 -20  -8   1   -7.83   22.75
 -20  -8   1   16.01    7.67
 -20   8   1    9.31   18.59
  18  -8  -1   95.36   53.97
 -18  -8   1   18.47   10.36
  18  -8  -1   18.40   31.13
 -18  -8   1   31.71   27.47
 -18  -8   1   36.25   29.06
  18   8  -1   40.65   23.46
 -18   8   1    9.04   19.84
 -16  -8   1  135.71   36.24
  16  -8  -1   78.04   27.15
  16  -8  -1  100.24   55.29
 -16  -8   1   83.68   36.13
 -16  -8   1   11.12   24.13
  16  -8  -1   31.85   30.44
  16   8  -1   28.53   25.04
 -14  -8   1   31.82   26.03
  14  -8  -1  176.02   61.17
 -14  -8   1  176.28   46.90
 -14  -8   1   82.54   31.03
  14  -8  -1   77.90   31.66
  14  -8  -1   31.91   23.92
  14   8  -1   76.51   27.23
 -14   8   1   28.73   21.10
 -14   8   1  115.76   40.97
  12  -8  -1   64.16   27.29
  12  -8  -1   31.59   37.34
 -12  -8   1   19.68   11.09
 -12  -8   1   54.03   23.92
  12  -8  -1   56.45   21.32
 -12  -8   1   32.89   22.55
 -12  -8   1  101.88   34.46
 -12   8   1    6.84   16.57
  12   8  -1   34.05   24.20
 -12   8   1   19.65   27.56
 -10  -8   1   38.47   20.23
  10  -8  -1   41.52   22.44
 -10  -8   1   41.71   20.23
 -10  -8   1   47.53   26.15
  10  -8  -1   62.30   40.25
  10  -8  -1    8.69   15.33
 -10  -8   1   10.53   11.11
 -10   8   1   29.05   27.94
 -10   8   1    7.08   17.91
  10   8  -1   27.03   15.34
  -8  -8   1   83.07   21.44
   8  -8  -1   68.71   25.09
   8  -8  -1  110.99   41.59
  -8  -8   1  100.18   25.88
  -8  -8   1   57.46   21.17
   8  -8  -1   62.68   18.98
  -8  -8   1   23.38   14.31
   8   8  -1   55.07   15.18
  -8   8   1   69.05   28.57
  -8   8   1   21.59   18.64
   6  -8  -1  202.90   34.99
  -6  -8   1  149.50   30.08
   6  -8  -1  141.05   28.64
  -6  -8   1  162.70   28.02
  -6  -8   1  209.49   36.57
   6  -8  -1  201.12   53.08
   6   8  -1  127.53   30.85
  -6   8   1   83.24   33.79
  -4  -8   1   60.82   17.66
   4  -8  -1   55.86   18.19
   4  -8  -1   88.17   24.88
   4  -8  -1  110.81   37.71
   4  -8  -1   76.58   20.92
  -4  -8   1   83.85   19.87
   4   8  -1   66.82   23.36
  -4   8   1   45.74   21.47
   2  -8  -1   49.87   15.40
   2  -8  -1   54.09   21.08
   2  -8  -1   37.93   23.66
   2  -8  -1   30.86   14.74
  -2   8   1   27.91   17.77
   2   8  -1   22.11   19.08
   0  -8  -1   59.21   24.45
   0  -8  -1   99.60   28.14
   0  -8  -1   89.97   20.07
   0  -8  -1   67.21   17.97
   0   8  -1   61.98   24.79
   0   8   1   45.74   20.32
  -2  -8  -1   21.61   12.67
  -2  -8  -1   35.02   19.00
  -2  -8  -1   18.11   16.40
  -2  -8  -1   51.47   17.10
   2   8   1   35.13   18.41
  -2   8  -1   26.83   20.94
  -4  -8  -1   47.70   22.71
   4  -8   1   84.44   17.01
   4  -8   1   99.82   25.69
  -4  -8  -1   58.28   18.36
  -4  -8  -1   78.63   24.18
  -4  -8  -1   53.23   23.70
  -4   8  -1   52.96   23.78
   4   8   1   52.19   19.88
  -6  -8  -1   44.21   21.57
  -6  -8  -1  132.61   32.34
  -6  -8  -1   85.84   22.90
  -6  -8  -1   50.57   26.21
   6  -8   1  119.42   22.78
   6   8   1   73.01   21.47
  -6   8  -1   69.54   27.02
   8  -8   1  125.56   35.90
  -8  -8  -1   46.56   19.82
  -8  -8  -1   88.30   28.17
  -8  -8  -1   45.41   25.87
   8  -8   1   46.43   16.17
   8  -8   1   80.48   22.75
  -8   8  -1   44.58   24.77
   8   8   1   41.47   17.89
  10  -8   1   22.19   16.18
 -10  -8  -1   52.98   25.58
  10  -8   1   39.95   21.90
  10  -8   1   43.33   29.10
 -10  -8  -1   33.61   19.32
 -10  -8  -1   11.58   22.38
  10   8   1   37.25   18.59
 -10   8  -1   12.03   18.83
 -10   8  -1   24.73   20.35
  12  -8   1   78.94   33.34
  12  -8   1   30.45   20.54
 -12  -8  -1   18.94   25.98
 -12  -8  -1   27.48   21.13
 -12  -8  -1   33.83   27.24
  12  -8   1   30.76   26.17
 -12   8  -1   20.63   22.07
  12   8   1   49.16   21.86
 -12   8  -1   39.78   24.70
  14  -8   1   34.18   23.91
  14  -8   1   66.86   39.89
 -14  -8  -1  122.40   35.64
  14  -8   1   65.37   32.69
 -14  -8  -1   67.47   28.31
 -14  -8  -1   12.48   24.56
 -14   8  -1  113.17   33.31
  14   8   1   46.46   25.39
 -14   8  -1   25.49   22.19
 -16  -8  -1   36.55   30.78
 -16  -8  -1   31.73   43.21
 -16  -8  -1   86.23   31.06
  16  -8   1   42.06   27.68
  16  -8   1   33.05   34.87
  16  -8   1   73.72   40.49
 -16   8  -1   27.78   23.62
  16   8   1   77.76   31.12
  18  -8   1    4.84   24.64
 -18  -8  -1   16.56   26.98
  18  -8   1   -3.32   31.28
  18  -8   1    9.81   38.51
 -18  -8  -1  -12.68   20.47
  18   8   1    9.87   23.47
 -18   8  -1  -20.53   16.99
  20  -8   1   18.89   28.56
  20  -8   1   -5.30   31.10
 -20  -8  -1   21.58   28.80
 -20  -8  -1   19.25   26.81
 -20   8  -1  -10.44   17.07
  20   8   1    0.03   13.55
  20   8   1   24.96   24.46
  22  -8   1   34.59   45.44
 -22  -8  -1   18.11   29.64
 -22  -8  -1   18.80   27.65
  22  -8   1   19.79   31.72
 -22   8  -1   19.02   23.16
  22   8   1    3.36    7.72
  22   8   1   -3.52   17.98
  22   8   1  -11.80    9.82
  19  -9  -1   20.31   46.77
  19  -9  -1   82.11   35.63
 -19  -9   1   46.11   30.23
 -19  -9   1   79.84   32.23
 -19   9   1   33.65   23.24
  17  -9  -1  226.30   76.23
  17  -9  -1  160.13   46.00
 -17  -9   1  147.44   43.49
 -17  -9   1   93.54   38.78
 -17  -9   1  200.23   26.80
  15  -9  -1  366.13   84.56
 -15  -9   1  154.62   45.15
 -15  -9   1  249.32   32.37
  15  -9  -1  190.94   46.83
  15  -9  -1  201.97   42.06
 -15  -9   1  155.70   43.06
 -15  -9   1  180.06   52.42
 -13  -9   1  144.14   39.65
  13  -9  -1  314.76   76.63
  13  -9  -1  254.51   48.81
 -13  -9   1  319.56   61.60
 -13  -9   1  184.53   44.92
 -13   9   1  150.59   54.56
 -13   9   1  182.68   40.74
 -11  -9   1  255.10   51.05
  11  -9  -1  327.14   56.11
  11  -9  -1  346.28   52.21
 -11  -9   1  334.05   58.68
 -11  -9   1  325.42   56.55
  11  -9  -1  397.89   84.52
 -11   9   1  264.25   52.10
  11   9  -1  288.53   47.56
  -9  -9   1  360.58   59.13
  -9  -9   1  453.33   65.15
   9  -9  -1  453.65   80.62
  -9  -9   1  441.12   64.40
   9  -9  -1  392.96   59.69
   9  -9  -1  363.53   62.58
  -9   9   1  334.82   61.77
  -7  -9   1  526.09   66.74
  -7  -9   1  462.35   65.12
   7  -9  -1  355.36   85.78
   7  -9  -1  436.34   64.92
   7  -9  -1  438.13   62.21
  -7  -9   1  374.81   59.93
  -7   9   1  343.67   65.06
  -5  -9   1  470.34   68.38
   5  -9  -1  520.38   82.61
  -5  -9   1  439.88   67.02
   5  -9  -1  472.94   66.77
   5  -9  -1  486.55   67.35
   5  -9  -1  494.32   69.00
  -5   9   1  462.18   71.67
   5   9  -1  402.74   69.03
   3  -9  -1  531.15   81.13
  -3  -9   1  558.84   70.25
   3  -9  -1  447.00   68.52
   3  -9  -1  460.87   69.06
  -3  -9   1  540.33   68.94
   3  -9  -1  489.69   71.09
  -3   9   1  402.79   72.95
   3   9  -1  576.73   75.28
   1  -9  -1  296.77   59.63
   1  -9  -1  335.28   51.16
   1  -9  -1  352.83   55.69
   1  -9  -1  387.32   53.97
  -1   9   1  389.04   58.67
   1   9  -1  422.50   60.56
  -1  -9  -1  391.89   69.42
  -1  -9  -1  478.15   63.16
  -1  -9  -1  433.56   67.90
  -1  -9  -1  463.20   65.44
   1   9   1  522.08   69.94
  -1   9  -1  386.51   69.80
   3  -9   1  384.46   71.50
  -3  -9  -1  389.86   74.46
  -3  -9  -1  622.52   75.64
  -3  -9  -1  574.14   71.20
  -3  -9  -1  465.65   75.85
   3   9   1  631.83   75.77
  -3   9  -1  514.49   78.29
  -5  -9  -1  417.25   64.89
   5  -9   1  445.41   66.19
  -5  -9  -1  329.32   64.98
  -5  -9  -1  372.30   59.65
  -5   9  -1  444.23   67.78
   5   9   1  460.83   62.82
  -7  -9  -1  434.82   66.35
  -7  -9  -1  435.22   73.44
   7  -9   1  532.24   75.64
   7   9   1  464.21   65.43
  -7   9  -1  361.79   70.17
  -9  -9  -1  436.09   64.07
   9  -9   1  432.33   71.75
   9  -9   1  349.42   56.90
  -9  -9  -1  455.91   74.11
  -9   9  -1  337.00   65.51
   9   9   1  454.83   59.81
 -11  -9  -1  270.27   64.67
  11  -9   1  490.15   69.86
  11  -9   1  326.51   53.06
 -11  -9  -1  401.19   63.58
 -11  -9  -1  331.89   57.30
  11   9   1  322.04   56.28
 -11   9  -1  262.34   58.24
 -13  -9  -1  189.22   53.95
  13  -9   1  229.58   47.81
 -13  -9  -1  306.96   53.29
 -13  -9  -1  333.55   57.51
  13  -9   1  229.53   63.13
  13   9   1  298.61   47.29
  15  -9   1  126.77   34.56
 -15  -9  -1  119.61   42.10
  15  -9   1  261.50   58.07
 -15   9  -1  118.62   35.99
  17  -9   1  106.55   34.96
 -17  -9  -1  213.90   44.46
 -17  -9  -1   75.98   35.13
  17  -9   1   95.83   49.13
 -17   9  -1  100.03   33.92
  19  -9   1   30.25   40.68
 -19  -9  -1  117.80   36.85
  19  -9   1   68.37   32.37
 -19  -9  -1   31.80   31.48
 -19   9  -1   28.05   25.74
  16 -10  -1    1.34   41.49
 -16 -10   1   24.92   25.56
 -16 -10   1   20.12   28.65
  16 -10  -1    9.41   23.78
 -16  10   1    8.01   24.05
 -14 -10   1    3.93   29.41
  14 -10  -1   11.76   44.80
 -14 -10   1  -12.64   18.97
  14 -10  -1    6.51   20.12
 -14 -10   1   11.28   25.11
  14 -10  -1   -5.68   21.08
 -14  10   1  -12.02   19.75
  14  10  -1   -0.43    5.86
 -12 -10   1   26.41   22.99
  12 -10  -1   10.92   21.32
 -12 -10   1   19.84   18.53
 -12 -10   1  -11.39   23.88
  12 -10  -1    5.11   21.54
  12 -10  -1    8.84   35.58
 -12  10   1  -10.65   19.57
 -12  10   1    6.21   21.70
  10 -10  -1   39.42   21.53
  10 -10  -1    6.16   19.76
 -10 -10   1   54.20   28.46
  10 -10  -1   32.09   40.51
 -10 -10   1   59.56   20.25
 -10 -10   1    4.94   23.25
 -10  10   1   -5.03   22.25
   8 -10  -1    2.31   30.30
   8 -10  -1    5.41   17.84
  -8 -10   1   -0.31   20.53
   8 -10  -1   36.59   20.05
  -8 -10   1   31.24   26.03
   8 -10  -1   25.87   17.74
  -8  10   1   14.04   23.99
   6 -10  -1   12.21   14.60
   6 -10  -1    4.48   29.40
  -6 -10   1   24.01   19.69
   6 -10  -1    8.43   16.47
  -6 -10   1    8.90   19.02
   6 -10  -1   18.92   14.92
  -6  10   1   -6.55   18.66
   6  10  -1    7.00   19.67
   4 -10  -1  -11.25   22.71
   4 -10  -1    6.41   12.87
   4 -10  -1   14.75   16.09
  -4 -10   1    7.60   15.88
   4 -10  -1   15.30   12.28
  -4 -10   1   14.59   16.73
   4  10  -1   20.06   23.61
  -4  10   1    1.11   21.53
  -2 -10   1   38.25   16.34
   2 -10  -1   33.32   29.59
   2 -10  -1   27.00   16.87
   2  10  -1   -0.16   21.72
  -2  10   1    4.13   22.43
   0 -10  -1   31.79   25.21
   0 -10  -1   38.41   18.63
   0 -10  -1   42.11   15.32
   0  10  -1   14.01   24.98
   0  10   1   18.76   22.74
  -2 -10  -1    5.78   18.90
  -2 -10  -1    7.78   11.75
  -2 -10  -1   30.39   20.28
  -2 -10  -1   10.37   15.81
   2  10   1    6.02   20.43
  -2  10  -1   29.68   28.18
  -4 -10  -1   16.48   13.79
  -4 -10  -1    4.78   21.72
   4 -10   1   11.49   20.84
  -4 -10  -1   11.77   21.24
   4 -10   1   17.41   12.15
  -4 -10  -1   21.85   18.21
   4  10   1   14.03   21.63
  -4  10  -1   21.07   27.36
  -6 -10  -1   25.90   24.70
  -6 -10  -1    0.73   14.57
  -6 -10  -1   20.69   17.90
   6 -10   1   22.05   13.76
  -6 -10  -1   63.56   27.98
   6 -10   1   74.21   31.50
  -6  10  -1    9.89   24.84
   6  10   1   23.11   20.40
  -8 -10  -1   33.92   18.67
   8 -10   1   38.71   17.33
  -8 -10  -1   21.56   26.64
  -8 -10  -1   18.21   24.85
   8 -10   1   16.04   28.26
  -8 -10  -1    8.21   17.78
  -8  10  -1   20.12   26.84
   8  10   1   28.25   19.85
 -10 -10  -1   38.90   29.80
 -10 -10  -1   47.23   21.78
 -10 -10  -1   31.90   28.52
 -10 -10  -1    3.82   17.62
  10 -10   1  110.06   37.96
 -10  10  -1   15.02   27.26
 -12 -10  -1    6.45   19.65
 -12 -10  -1   41.00   31.66
  12 -10   1   13.18   16.15
 -12 -10  -1    3.74   27.07
  12 -10   1   15.94   30.67
 -12 -10  -1   12.63   20.94
 -12  10  -1    8.55   25.15
  14 -10   1   21.11   19.76
 -14 -10  -1   84.96   36.48
  14 -10   1  -12.76   30.60
 -14 -10  -1   11.29   23.98
 -14  10  -1    7.28   25.15
  14  10   1   -0.38    5.59
 -14  10  -1   15.63   22.12
 -16 -10  -1  -11.32   26.34
  16 -10   1    8.62   21.72
 -16 -10  -1    0.48   23.99
  16 -10   1    5.08   38.69
 -16  10  -1   17.88   25.51
  16  10   1    2.27    8.14
 -13 -11   1   15.07   19.42
  13 -11  -1   65.06   47.84
 -13 -11   1   61.21   29.10
  13 -11  -1   68.32   25.13
  13 -11  -1   67.75   33.28
 -13 -11   1  118.87   40.15
 -13 -11   1   89.75   26.43
 -13  11   1   60.52   29.43
 -11 -11   1  101.17   25.98
 -11 -11   1  153.64   47.21
  11 -11  -1  165.36   58.34
 -11 -11   1  118.06   33.12
  11 -11  -1   92.96   26.04
 -11  11   1   40.07   30.75
   9 -11  -1  173.68   31.23
   9 -11  -1   98.20   25.09
   9 -11  -1  183.67   60.39
  -9 -11   1  186.14   44.96
  -9 -11   1   94.61   32.03
  -9  11   1   67.62   31.84
   7 -11  -1  284.92   73.58
   7 -11  -1  279.54   47.46
  -7 -11   1  219.65   51.72
  -5 -11   1  162.84   38.99
   5 -11  -1  256.91   62.51
  -5 -11   1  164.65   38.02
  -5  11   1  219.10   46.93
   5  11  -1  169.14   42.79
   3 -11  -1  344.40   47.37
  -3 -11   1  277.08   46.26
  -3 -11   1  289.28   44.84
   3 -11  -1  154.34   55.10
  -3  11   1  192.32   51.53
   3  11  -1  251.07   53.48
   1 -11  -1  339.67   49.35
   1 -11  -1  173.17   56.03
  -1 -11   1  335.32   45.12
  -1  11   1  226.79   53.62
   1  11  -1  264.09   57.42
   1 -11   1  153.51   38.83
  -1 -11  -1  175.79   46.01
   1  11   1  238.36   48.00
  -1  11  -1  192.10   47.89
   3 -11   1  167.56   50.66
  -3 -11  -1  339.58   53.16
   3 -11   1  306.76   41.08
  -3  11  -1  214.07   55.67
   3  11   1  271.30   54.40
  -5 -11  -1  123.93   31.54
   5 -11   1  193.62   45.72
  -5 -11  -1  240.79   48.20
  -5 -11  -1  110.49   37.39
  -5  11  -1  142.32   44.28
   5  11   1  191.37   41.19
  -7 -11  -1  161.18   32.86
   7 -11   1  222.01   49.52
   7 -11   1  243.01   33.98
  -7 -11  -1  117.56   38.55
  -7 -11  -1   86.35   33.05
  -7  11  -1  125.37   43.60
   7  11   1  197.80   40.30
  -9 -11  -1  152.14   45.94
   9 -11   1  252.69   55.74
   9 -11   1  210.02   36.31
  -9 -11  -1  112.06   39.31
  -9 -11  -1  181.83   36.45
  -9  11  -1  117.07   44.08
 -11 -11  -1  116.83   37.31
  11 -11   1   87.54   27.16
 -11 -11  -1  132.82   31.63
  11 -11   1  137.38   45.21
 -11 -11  -1   43.09   25.76
 -11 -11  -1   72.31   35.05
 -11  11  -1   76.89   38.01
  13 -11   1   57.46   42.52
 -13 -11  -1   46.33   35.63
  13 -11   1   83.67   26.48
 -13 -11  -1  112.01   29.65
 -13 -11  -1    8.98   20.88
 -13  11  -1   63.25   34.15
   6 -12  -1   16.29   23.94
  -6 -12   1    8.76   23.49
  -6 -12   1   -2.98   22.82
   6 -12  -1   26.76   40.27
   4 -12  -1   56.97   36.14
  -4 -12   1   18.29   23.12
  -4 -12   1   33.51   23.33
   4 -12  -1   14.18   22.92
   4  12  -1   22.26   29.18
  -4  12   1    5.54   28.42
  -2 -12   1   27.42   22.97
   2 -12  -1   25.61   25.04
   2 -12  -1   13.13   32.51
  -2 -12   1   59.83   22.47
  -2  12   1    2.39   30.00
   2  12  -1   13.84   30.75
   0 -12  -1   51.45   34.85
   0 -12   1   59.77   20.38
   0 -12  -1   20.46   25.08
   0  12  -1   -3.40   30.48
   0  12   1    6.61   28.07
   2 -12   1   12.95   24.36
  -2 -12  -1   11.79   25.78
  -2 -12  -1   50.82   28.80
   2  12   1   16.01   27.72
  -2  12  -1   39.84   32.17
  -4 -12  -1   20.80   29.01
   4 -12   1   28.06   17.34
   4 -12   1   -7.49   24.94
  -4 -12  -1   20.97   28.24
  -4  12  -1  -10.48   31.21
   4  12   1   -0.42   25.03
  -6 -12  -1   22.39   29.36
  -6 -12  -1   20.24   27.73
   6 -12   1    2.26   16.35
   6 -12   1   21.29   30.55
 -30   0   2   12.71   25.14
  28   0  -2   39.17   40.05
 -28   0   2   51.89   29.92
  28   0  -2   46.43   47.53
 -28   0   2   35.54   15.27
  26   0  -2   39.29   40.57
 -26   0   2   27.91   25.50
  26   0  -2   52.96   40.06
  24   0  -2  173.68   64.02
  24   0  -2  156.53   52.75
 -24   0   2  162.47   44.28
  22   0  -2  197.83   56.77
  22   0  -2  118.14   53.89
 -22   0   2  179.62   52.25
 -22   0   2  180.48   45.46
 -20   0   2  344.82   79.56
  20   0  -2  265.44   62.30
  20   0  -2  293.92   53.03
 -20   0   2  274.65   56.77
  20   0  -2  271.01   74.59
  18   0  -2  358.42   79.76
  18   0  -2  316.66   65.82
  18   0  -2  263.13   50.99
 -18   0   2  311.94   58.42
 -18   0   2  281.94   67.93
 -18   0   2  322.24   68.80
 -16   0   2  342.91   78.81
  16   0  -2  375.62   66.06
  16   0  -2  564.81   93.68
  16   0  -2  382.57   58.89
 -16   0   2  274.30   61.96
 -16   0   2  417.14   59.06
 -14   0   2  464.05   80.47
  14   0  -2  566.93   76.16
 -14   0   2  578.03   76.40
 -14   0   2  476.79   83.08
  14   0  -2  551.32   83.12
  14   0  -2  511.29   86.44
  12   0  -2  586.16   90.21
 -12   0   2  527.06   84.61
 -12   0   2  504.02   86.74
  12   0  -2  686.76   88.50
  10   0  -2 2086.93  265.78
 -10   0   2 1890.11  270.41
 -10   0   2 2232.89  266.31
  10   0  -2 2327.54  276.05
 -10   0   2 1852.81  272.18
   8   0  -2 1379.99  156.34
  -8   0   2  964.53  153.59
  -8   0   2 1044.22  152.99
   8   0  -2 1168.66  148.22
   8   0  -2 1171.25  156.34
   6   0  -2  245.05   40.09
  -6   0   2  229.33   44.89
   6   0  -2  260.35   33.05
  -6   0   2  168.32   36.92
   6   0  -2  212.01   43.44
  -4   0   2  869.43  131.04
   4   0  -2  859.48  125.96
   4   0  -2 1071.34  132.74
   4   0  -2 1187.55  134.18
  -4   0   2 1005.19  126.21
  -4   0   2  962.66  132.51
  -2   0   2 1017.97  150.80
   2   0  -2 1155.21  149.99
   2   0  -2 1273.89  152.26
  -2   0   2 1102.09  149.70
   0   0  -2 7008.87  927.70
   0   0   2 7115.70  923.50
  -2   0  -2  299.21   44.74
   2   0   2  371.27   45.68
   2   0   2  367.10   45.73
  -2   0  -2  292.44   44.75
   2   0   2  337.53   49.49
  -2   0  -2  276.09   48.04
  -4   0  -2  344.12   53.77
  -4   0  -2  362.20   50.15
   4   0   2  370.80   53.69
  -4   0  -2  295.56   50.44
   4   0   2  390.63   50.82
   4   0   2  404.06   47.15
   4   0   2  323.63   51.05
   6   0   2  709.50   87.25
  -6   0  -2  639.47   92.40
  -6   0  -2  652.18   87.15
   6   0   2  722.31   94.18
   6   0   2  758.85   94.23
  -6   0  -2  641.94   90.82
  -6   0  -2  596.78   94.18
   6   0   2  739.59   92.29
   8   0   2  940.02  125.71
  -8   0  -2  766.67  123.59
  -8   0  -2  914.22  122.43
  -8   0  -2  887.32  126.36
   8   0   2  978.96  123.86
   8   0   2 1031.77  125.82
  -8   0  -2  931.58  117.65
 -10   0  -2 1297.29  158.47
 -10   0  -2 1307.91  169.51
 -10   0  -2 1182.50  164.03
  10   0   2 1321.56  166.10
  10   0   2 1264.12  168.51
 -10   0  -2 1078.85  166.23
 -12   0  -2  972.78  125.15
 -12   0  -2  879.68  127.61
 -12   0  -2  944.22  129.01
 -12   0  -2  777.83  116.43
  12   0   2  972.20  126.39
  12   0   2 1056.86  130.78
 -14   0  -2  315.63   55.39
 -14   0  -2  419.25   75.52
  14   0   2  431.37   59.91
  14   0   2  323.57   60.64
 -14   0  -2  300.48   57.93
 -14   0  -2  321.19   45.55
 -16   0  -2  516.02   75.55
  16   0   2  458.65   74.94
 -16   0  -2  436.43   69.42
  16   0   2  457.85   71.39
 -16   0  -2  485.14   74.09
 -16   0  -2  369.36   56.66
 -18   0  -2  172.58   42.90
 -18   0  -2  125.15   42.19
  18   0   2  245.49   49.12
 -18   0  -2  158.97   44.66
 -18   0  -2  109.92   21.64
  18   0   2  195.24   50.52
 -20   0  -2  417.86   82.37
 -20   0  -2  360.58   58.80
  20   0   2  398.33   75.88
  20   0   2  327.40   61.60
 -20   0  -2  198.69   55.29
 -20   0  -2  234.93   38.24
 -22   0  -2  177.58   30.59
  22   0   2  319.39   73.59
  22   0   2  330.47   63.60
 -22   0  -2  224.56   57.36
 -24   0  -2  100.54   38.81
  24   0   2  103.73   48.15
  24   0   2   78.56   38.07
 -24   0  -2  108.21   20.40
 -26   0  -2   51.28   31.20
  26   0   2   63.79   45.84
 -26   0  -2   36.62   12.40
  26   0   2    9.84   30.62
 -28   0  -2   29.64   32.60
  28   0   2   36.24   37.08
 -28   0  -2   15.62   10.72
  28   0   2   50.45   45.50
  29  -1  -2    6.71   37.87
  29  -1  -2   30.40   47.60
 -29  -1   2    0.13   10.53
 -29  -1   2   -8.63   19.94
  29   1  -2   -1.56   37.33
  29   1  -2   11.09   44.68
 -29   1   2    4.16   12.61
 -29   1   2   12.89   26.00
 -27  -1   2  -18.69   16.56
  27  -1  -2   21.90   38.19
  27  -1  -2    7.15   36.73
 -27   1   2    5.91   12.48
 -27   1   2    7.24   23.20
  27   1  -2   41.06   41.20
  27   1  -2  -13.89   30.42
  25  -1  -2    6.71   36.06
  25  -1  -2   11.52   33.50
 -25  -1   2   -2.01   19.94
 -25   1   2   11.28   21.60
  25   1  -2    3.80   27.71
  25   1  -2    2.37   33.18
 -23  -1   2   28.42   22.46
  23  -1  -2   88.62   47.39
  23  -1  -2   57.29   41.13
 -23  -1   2   77.96   31.05
 -23   1   2   12.99   22.17
  23   1  -2   48.55   40.96
  23   1  -2   41.30   34.49
  21  -1  -2   59.81   41.83
  21  -1  -2   70.99   37.13
 -21  -1   2   21.61   22.22
 -21  -1   2   80.59   31.38
  21   1  -2   54.29   35.41
 -21   1   2   76.74   30.89
 -21   1   2   43.92   39.50
  21   1  -2   12.25   28.85
 -21   1   2   23.45   22.63
  21   1  -2   40.33   23.92
  19  -1  -2   14.50   30.60
 -19  -1   2   21.47   20.42
  19  -1  -2   28.40   19.53
 -19  -1   2    4.38   21.38
  19  -1  -2   18.90   28.11
 -19  -1   2   31.38   23.55
  19   1  -2   15.00   25.41
 -19   1   2   18.38   23.13
 -19   1   2   -3.33   16.82
  19   1  -2   13.22   26.89
 -19   1   2   25.27   27.91
  19   1  -2    9.45   18.53
  17  -1  -2   69.74   33.85
  17  -1  -2   70.95   36.04
 -17  -1   2   50.82   25.75
 -17  -1   2   47.82   20.65
  17  -1  -2   35.53   19.23
 -17  -1   2   55.75   25.26
  17   1  -2   23.61   19.28
  17   1  -2   37.73   27.63
  17   1  -2   66.10   36.10
 -17   1   2   20.43   18.22
 -17   1   2   27.79   22.99
 -17   1   2    9.08   24.10
  15  -1  -2   78.62   30.04
 -15  -1   2   69.38   26.58
 -15  -1   2   83.20   31.94
  15  -1  -2   41.88   19.14
 -15  -1   2   55.16   20.55
  15  -1  -2   85.19   36.55
  15   1  -2   34.76   26.90
 -15   1   2   74.27   31.56
  15   1  -2   60.93   27.91
 -15   1   2   73.55   27.81
 -15   1   2   43.33   19.31
  15   1  -2   26.75   17.08
  13  -1  -2  149.97   37.50
  13  -1  -2  111.03   26.33
 -13  -1   2  105.81   31.53
 -13  -1   2   65.62   21.68
  13  -1  -2  138.12   41.14
 -13  -1   2   94.09   32.20
 -13   1   2   93.63   23.94
 -13   1   2  100.01   31.88
 -13   1   2   91.62   35.98
  13   1  -2  131.96   38.77
  13   1  -2  120.43   32.18
  13   1  -2   91.18   22.83
  11  -1  -2  179.43   40.21
  11  -1  -2   68.87   20.60
 -11  -1   2   62.85   20.35
 -11  -1   2  102.86   29.40
  11  -1  -2   89.05   32.69
 -11  -1   2  130.10   36.09
 -11   1   2  134.02   34.23
 -11   1   2  126.26   36.82
  11   1  -2  119.58   30.34
  11   1  -2   81.63   20.91
 -11   1   2  104.03   24.02
  11   1  -2  124.66   33.53
   9  -1  -2  242.98   38.38
   9  -1  -2  397.67   54.10
  -9  -1   2  303.91   44.97
  -9  -1   2  247.54   45.59
   9   1  -2  317.67   46.03
   9   1  -2  290.95   47.08
  -9   1   2  215.79   38.28
  -9   1   2  244.44   51.10
  -9   1   2  263.84   45.57
   9   1  -2  226.08   37.88
  -7  -1   2  116.48   25.77
   7  -1  -2   79.13   18.11
   7  -1  -2  177.94   30.38
  -7  -1   2  111.01   19.42
  -7  -1   2  149.57   31.25
   7  -1  -2  127.97   34.63
  -7   1   2  103.59   28.83
  -7   1   2   57.72   16.73
  -7   1   2  119.03   30.06
   7   1  -2   69.21   17.15
   7   1  -2  130.58   29.75
   7   1  -2  146.43   29.13
  -5  -1   2   84.32   21.77
  -5  -1   2   75.58   20.61
   5  -1  -2   93.16   25.64
  -5  -1   2   72.50   14.82
   5  -1  -2   50.23   14.21
   5  -1  -2   57.01   22.39
  -5   1   2   92.73   16.51
  -5   1   2  126.45   29.06
   5   1  -2   95.22   22.27
  -5   1   2  125.60   28.96
   5   1  -2  105.61   25.01
   5   1  -2   68.33   14.81
   3  -1  -2    7.36   11.48
   3  -1  -2    7.22    6.16
  -3  -1   2   18.44   11.22
  -3  -1   2   12.78   10.69
  -3  -1   2    9.00    5.62
   3  -1  -2   11.63   12.48
   3   1  -2   26.78   12.37
  -3   1   2    9.00   12.63
   3   1  -2    1.86    5.06
  -3   1   2    2.70    4.85
   3   1  -2   18.62   11.90
  -3   1   2   17.25   14.05
  -1  -1   2   39.07    9.90
   1  -1  -2   46.35   18.14
   1  -1  -2   27.71   17.40
   1  -1  -2   39.42   10.23
  -1  -1   2   42.70   14.46
  -1  -1   2   34.95   14.93
   1   1  -2   40.73    9.72
   1   1  -2   49.66   14.98
  -1   1   2   25.71   15.93
  -1   1   2   58.20   11.90
  -1   1   2   31.11   15.52
   1   1  -2   32.53   13.95
  -1  -1  -2  445.55   62.97
   1  -1   2  463.05   62.19
   1  -1   2  449.14   65.17
   1  -1   2  502.44   62.32
  -1  -1  -2  452.42   62.62
  -1  -1  -2  436.24   66.94
   1   1   2  390.21   66.14
  -1   1  -2  474.70   64.93
   1   1   2  504.28   62.84
  -1   1  -2  538.85   62.26
   1   1   2  472.52   63.33
  -1   1  -2  441.73   61.78
  -3  -1  -2   19.99    9.62
  -3  -1  -2   23.09   13.98
   3  -1   2   22.36   13.56
  -3  -1  -2   50.39   13.85
   3  -1   2   35.14    8.72
   3  -1   2   27.38    9.18
   3  -1   2   45.51   12.90
   3   1   2   29.24   14.48
  -3   1  -2   38.00    8.85
  -3   1  -2   30.12   11.07
  -3   1  -2   34.62   14.34
  -3   1  -2   22.49    8.70
   3   1   2   34.51   11.88
   3   1   2   54.19   13.99
   5  -1   2   96.07   23.51
  -5  -1  -2  147.26   30.24
  -5  -1  -2  185.56   29.99
   5  -1   2  106.01   20.37
   5  -1   2  151.57   24.23
  -5  -1  -2   94.91   20.11
   5  -1   2   96.52   16.64
   5   1   2  109.62   21.19
   5   1   2  176.64   28.87
  -5   1  -2   91.80   19.22
  -5   1  -2  104.72   17.33
  -5   1  -2  135.29   22.89
  -5   1  -2  106.75   25.51
   5   1   2  137.90   27.86
   7  -1   2  120.08   26.24
   7  -1   2   65.54   14.29
  -7  -1  -2   88.38   19.98
  -7  -1  -2   57.95   22.91
   7  -1   2   70.29   19.39
  -7  -1  -2  143.11   28.22
   7  -1   2   90.75   23.51
   7   1   2   66.01   11.48
   7   1   2  104.01   22.95
  -7   1  -2  105.01   21.11
  -7   1  -2   79.95   24.33
  -7   1  -2  104.14   16.86
   7   1   2  108.45   24.59
  -7   1  -2  126.00   26.14
   9  -1   2   33.20    9.57
   9  -1   2   38.63   15.83
  -9  -1  -2   59.42   22.28
  -9  -1  -2   55.45   17.54
  -9  -1  -2   18.44   18.59
   9  -1   2   64.87   20.94
   9  -1   2  102.41   26.68
  -9   1  -2   50.06   17.33
  -9   1  -2   42.45   20.68
   9   1   2   53.95   21.94
  -9   1  -2   44.98   11.36
   9   1   2   47.76   18.34
  -9   1  -2   90.02   25.17
   9   1   2   34.50    7.41
   9   1   2   32.86   17.19
  11  -1   2  293.44   46.59
 -11  -1  -2  315.45   47.86
  11  -1   2  238.46   44.00
 -11  -1  -2  236.94   42.17
 -11  -1  -2  264.19   33.86
  11  -1   2  204.87   35.60
  11  -1   2  334.60   49.76
 -11  -1  -2  294.46   48.90
 -11   1  -2  266.05   43.30
 -11   1  -2  336.93   49.19
  11   1   2  279.57   47.30
  11   1   2  236.54   44.45
 -11   1  -2  220.99   35.83
 -11   1  -2  264.88   47.96
  11   1   2  311.52   49.64
 -13  -1  -2  107.85   29.99
  13  -1   2  119.51   34.24
 -13  -1  -2  178.81   42.82
 -13  -1  -2   89.56   32.48
  13  -1   2   98.33   30.41
  13  -1   2  149.86   40.41
 -13   1  -2  126.77   31.40
 -13   1  -2  203.87   45.37
 -13   1  -2  110.06   21.13
 -13   1  -2  109.69   34.31
  13   1   2   96.37   32.48
  13   1   2  108.61   36.94
  13   1   2  107.37   33.24
 -15  -1  -2    5.81    5.93
  15  -1   2   -0.28   18.19
 -15  -1  -2    0.74   15.27
  15  -1   2    9.02   17.92
 -15  -1  -2   -2.53   12.72
  15  -1   2   15.68   21.33
 -15  -1  -2    5.20   18.02
 -15   1  -2   -9.25    6.82
 -15   1  -2   22.33   21.74
  15   1   2    2.36   18.94
 -15   1  -2    3.99   18.18
 -15   1  -2   -6.23   13.92
  15   1   2    5.86   21.21
  15   1   2   -3.17   17.41
  17  -1   2  131.55   39.96
  17  -1   2   91.27   34.16
 -17  -1  -2   87.78   17.70
  17  -1   2  184.75   50.21
 -17  -1  -2   99.75   36.40
 -17  -1  -2  245.38   55.42
 -17  -1  -2  140.02   34.55
 -17   1  -2  113.57   22.29
  17   1   2  151.80   41.93
  17   1   2  134.48   38.23
 -17   1  -2  195.36   49.76
  17   1   2  106.58   35.87
 -17   1  -2  120.15   39.40
 -17   1  -2  183.24   41.88
  19  -1   2   24.85   28.21
 -19  -1  -2   14.30    7.79
 -19  -1  -2   32.61   28.86
  19  -1   2   18.17   27.27
  19  -1   2  -18.53   20.25
 -19  -1  -2   12.02   19.01
 -19  -1  -2   -1.31   19.66
 -19   1  -2   14.76   22.49
  19   1   2   20.76   28.47
 -19   1  -2   35.82   28.54
 -19   1  -2    3.16    9.45
  19   1   2    5.44   23.29
  19   1   2   28.47   27.20
 -19   1  -2    8.58   25.56
 -21  -1  -2   16.90   24.51
  21  -1   2   20.92   28.09
 -21  -1  -2   32.71   24.63
  21  -1   2    0.04   26.45
 -21  -1  -2   19.44    9.05
 -21   1  -2    6.46   10.62
 -21   1  -2   29.61   34.16
 -21   1  -2   21.63   41.17
  21   1   2   21.53   35.71
  21   1   2   54.21   35.75
 -21   1  -2    4.34   23.46
  21   1   2   14.39   25.29
  23  -1   2  114.61   45.66
  23  -1   2   12.35   29.51
 -23  -1  -2   30.49   10.52
 -23  -1  -2   -2.52   22.82
 -23   1  -2    8.46   28.14
  23   1   2   44.51   35.00
 -23   1  -2   49.70   15.26
  23   1   2   46.43   34.91
 -25  -1  -2    6.51   24.67
 -25  -1  -2   19.32    8.67
  25  -1   2   20.33   36.43
  25  -1   2   32.98   34.11
  25   1   2   20.38   33.98
 -25   1  -2    9.17   11.51
 -25   1  -2  -26.94   21.36
  25   1   2   -5.95   25.72
  27  -1   2   33.18   35.65
  27  -1   2   55.38   44.92
 -27  -1  -2    4.27    7.87
 -27  -1  -2    5.18   27.02
  27   1   2    6.22   31.43
  27   1   2    6.67   33.81
 -27   1  -2   12.07   11.47
 -27   1  -2  -21.19   21.32
  29  -1   2  -11.48   34.38
  29  -1   2   22.76   37.74
 -29  -1  -2   14.29   31.03
 -29   1  -2    0.13   27.50
  29   1   2    1.84   34.55
 -29   1  -2   -0.24   10.72
  29   1   2   56.97   42.08
  28  -2  -2   48.33   51.52
 -28  -2   2   23.25   27.16
  28  -2  -2   56.42   46.67
 -28   2   2   41.28   27.60
  28   2  -2    3.01   36.40
  28   2  -2   20.34   41.84
 -28   2   2   38.18   17.11
 -26  -2   2   52.43   28.64
  26  -2  -2    9.72   40.86
  26  -2  -2   99.71   47.50
 -26   2   2   62.80   19.99
  26   2  -2   97.83   51.23
 -26   2   2   92.48   36.10
  26   2  -2   66.28   41.91
 -24  -2   2  149.41   45.01
  24  -2  -2  419.43   82.82
  24  -2  -2  207.62   68.47
  24   2  -2  213.46   59.52
  24   2  -2  292.35   76.08
 -24   2   2  188.18   34.48
 -24   2   2  180.90   47.66
  22  -2  -2  150.64   64.79
 -22  -2   2  292.93   59.10
 -22  -2   2  217.65   52.06
  22  -2  -2  302.60   71.91
  22   2  -2  266.22   63.44
  22   2  -2  383.92   59.97
  22   2  -2  252.68   70.83
 -22   2   2  252.50   57.07
 -20  -2   2  298.67   59.19
 -20  -2   2  378.71   70.43
  20  -2  -2  491.31  101.16
  20  -2  -2  440.49   66.13
  20  -2  -2  400.26   76.41
 -20  -2   2  330.34   66.64
 -20   2   2  378.76   81.86
  20   2  -2  354.58   60.26
 -20   2   2  280.58   58.87
  20   2  -2  398.78   83.42
  20   2  -2  423.52   72.69
 -20   2   2  296.52   80.87
  18  -2  -2  550.50   82.51
  18  -2  -2  514.43   87.39
 -18  -2   2  324.71   64.90
 -18  -2   2  379.26   86.53
 -18  -2   2  368.13   71.86
 -18   2   2  483.52   68.19
  18   2  -2  434.44   74.56
 -18   2   2  470.88   98.52
  18   2  -2  430.28   66.11
 -18   2   2  373.52   73.21
  18   2  -2  395.86   77.49
  16  -2  -2  484.75   92.33
 -16  -2   2  598.57   78.89
  16  -2  -2  587.28   79.69
  16  -2  -2  622.96   89.95
 -16  -2   2  414.48   81.50
 -16   2   2  396.71   81.93
  16   2  -2  588.43   89.71
  16   2  -2  670.04   87.93
 -16   2   2  360.30   83.98
 -16   2   2  520.67   78.37
  16   2  -2  638.13   79.34
 -14  -2   2  674.27  109.33
  14  -2  -2  849.29  115.76
 -14  -2   2  625.72  111.52
  14  -2  -2  611.81  115.50
  14  -2  -2  777.40  105.39
 -14  -2   2  917.12  106.28
  14   2  -2  829.34  114.59
 -14   2   2  569.77  111.42
 -14   2   2  721.66  104.73
  14   2  -2  902.66  105.72
  14   2  -2  843.67  111.21
  12  -2  -2 1285.67  149.35
 -12  -2   2 1257.08  148.88
 -12  -2   2  972.99  152.07
 -12  -2   2 1008.62  154.48
  12  -2  -2 1159.85  161.39
 -12   2   2 1376.34  149.79
  12   2  -2 1171.26  152.93
 -12   2   2  922.73  155.41
  12   2  -2 1103.76  155.14
  12   2  -2 1131.94  147.47
 -12   2   2  888.88  152.81
 -10  -2   2 1704.44  235.30
 -10  -2   2 1562.26  236.34
  10  -2  -2 1776.00  242.43
 -10   2   2 1718.72  239.88
  10   2  -2 2039.60  231.11
  10   2  -2 2044.49  236.30
  10   2  -2 1995.19  238.07
 -10   2   2 1492.74  236.34
  -8  -2   2 2156.52  285.92
   8  -2  -2 2470.50  293.55
  -8  -2   2 1974.24  286.16
  -8   2   2 2164.11  289.19
  -8   2   2 2016.53  289.19
   8   2  -2 2532.23  287.48
  -6  -2   2 1766.71  236.99
  -6  -2   2 1810.75  237.24
   6  -2  -2 1512.64  240.03
   6   2  -2 1943.06  236.55
   6   2  -2 2097.03  237.10
  -4  -2   2 1556.51  200.28
   4  -2  -2 1817.82  207.39
  -4  -2   2 1465.75  196.81
  -4  -2   2 1679.48  202.49
   4   2  -2 1545.76  196.74
  -4   2   2 1381.53  204.78
  -4   2   2 1470.35  203.68
  -2  -2   2 4677.46  584.71
   2  -2  -2 4399.02  599.52
   2   2  -2 3713.79  581.32
  -2   2   2 5331.31  604.87
   0  -2  -2 4835.16  772.45
   0  -2   2 6458.62  762.14
   0   2   2 6405.18  782.41
  -2  -2  -2  838.42  134.65
  -2   2  -2 1141.25  132.88
   4  -2   2 1707.21  187.29
   4  -2   2 1496.24  188.21
  -4  -2  -2 1320.37  186.56
  -4  -2  -2 1248.83  188.89
   4   2   2 1308.20  185.92
  -4   2  -2 1593.65  185.81
  -4   2  -2 1303.82  186.38
   4   2   2 1588.02  189.38
   6  -2   2 2383.40  293.46
   6  -2   2 2313.45  288.99
  -6   2  -2 2350.98  289.49
  -6   2  -2 2056.62  292.95
  -8  -2  -2 2143.59  290.04
   8  -2   2 2198.78  288.07
  -8  -2  -2 2100.61  287.43
   8  -2   2 2570.73  288.58
  -8   2  -2 2239.18  287.68
   8   2   2 2076.13  287.17
  -8   2  -2 2000.80  287.69
  -8   2  -2 2439.78  286.06
 -10  -2  -2 2065.03  258.79
  10  -2   2 2096.59  254.21
 -10  -2  -2 2063.99  263.42
 -10  -2  -2 1743.68  259.77
  10  -2   2 2148.95  260.73
  10  -2   2 1831.38  260.66
  10  -2   2 2040.88  259.04
 -10   2  -2 1751.16  260.52
  10   2   2 2078.10  261.75
 -10   2  -2 2082.41  258.88
 -10   2  -2 1817.75  260.26
  10   2   2 2153.34  260.92
  12  -2   2 1006.13  141.17
  12  -2   2 1209.07  139.30
 -12  -2  -2  978.57  136.78
 -12  -2  -2  893.60  139.13
 -12   2  -2  887.72  139.05
 -12   2  -2 1015.37  131.16
 -12   2  -2  997.97  137.08
  12   2   2 1104.14  140.13
 -12   2  -2  889.32  139.25
  12   2   2 1092.44  141.86
  14  -2   2  809.88  118.26
  14  -2   2  863.06  114.81
 -14  -2  -2  932.72  119.13
 -14  -2  -2  882.20  113.71
 -14  -2  -2  797.44  117.05
  14   2   2  975.15  120.53
 -14   2  -2  802.12  113.61
 -14   2  -2  702.24  115.50
 -14   2  -2  698.53  104.93
 -14   2  -2  682.86  114.73
  16  -2   2  503.01   82.98
  16  -2   2  501.43   79.29
 -16  -2  -2  505.38   81.38
 -16  -2  -2  548.25   78.38
 -16  -2  -2  532.43   81.19
  16   2   2  516.71   82.51
 -16   2  -2  391.71   80.16
  16   2   2  563.06   81.36
 -16   2  -2  513.19   78.51
 -16   2  -2  471.34   67.30
 -16   2  -2  402.55   78.89
 -18  -2  -2  282.39   65.10
 -18  -2  -2  290.28   57.79
 -18  -2  -2  423.78   81.58
  18  -2   2  313.94   69.01
  18  -2   2  346.87   62.66
  18   2   2  442.17   66.78
  18   2   2  279.45   61.30
 -18   2  -2  327.04   61.25
 -18   2  -2  341.68   74.18
  18   2   2  331.85   73.04
 -18   2  -2  369.93   70.83
 -18   2  -2  316.86   47.10
  20  -2   2  347.10   61.39
 -20  -2  -2  271.78   59.82
 -20  -2  -2  294.65   57.85
  20  -2   2  329.46   73.89
 -20   2  -2  419.55   85.00
 -20   2  -2  244.60   41.25
  20   2   2  305.69   62.89
 -20   2  -2  294.39   57.36
 -20   2  -2  205.21   56.64
  20   2   2  321.83   70.80
 -22  -2  -2  153.23   49.10
  22  -2   2  244.41   54.81
  22  -2   2  182.22   58.26
 -22   2  -2  164.76   31.55
 -22   2  -2  200.99   53.14
  22   2   2  271.05   60.10
  22   2   2  256.02   60.98
 -22   2  -2  286.13   69.52
  24  -2   2  199.30   50.64
 -24  -2  -2   90.70   41.60
  24  -2   2  175.23   57.96
 -24   2  -2  170.27   48.86
 -24   2  -2  146.62   27.54
  24   2   2  246.06   67.82
  24   2   2  148.63   47.95
  26  -2   2   74.66   39.04
  26  -2   2   50.93   43.85
 -26  -2  -2   37.55   32.74
  26   2   2   59.37   41.57
 -26   2  -2   49.05   37.80
 -26   2  -2   45.99   16.21
  26   2   2   29.12   37.39
  28  -2   2   48.43   38.61
  28  -2   2   -3.06   36.13
 -28  -2  -2    9.29   27.95
  28   2   2   22.31   39.70
 -28   2  -2   24.33   33.81
  28   2   2   37.62   37.49
 -28   2  -2   12.21   12.83
 -29  -3   2   24.96   28.35
  29  -3  -2   44.35   43.47
 -29   3   2    2.56   24.72
  29   3  -2   -3.74   38.92
 -27  -3   2   34.74   27.97
  27  -3  -2    6.61   39.76
  27  -3  -2   55.86   49.89
  27   3  -2   22.00   38.74
 -27   3   2    6.26   13.67
 -27   3   2    0.41   22.79
  27   3  -2    9.77   35.95
 -25  -3   2   -9.94   20.51
  25  -3  -2   19.57   37.80
  25  -3  -2   43.97   45.09
  25   3  -2   22.84   34.53
  25   3  -2   44.60   44.28
 -25   3   2   13.91   16.38
 -25   3   2   37.80   28.74
  23  -3  -2   51.39   41.40
 -23  -3   2   17.60   22.83
  23  -3  -2   77.51   52.48
 -23  -3   2   22.44   31.45
  23   3  -2   43.34   37.72
 -23   3   2   45.34   26.82
  23   3  -2   19.84   30.54
 -23   3   2   17.67   14.66
 -21  -3   2   42.88   26.66
  21  -3  -2   77.34   40.48
  21  -3  -2   80.47   48.39
 -21  -3   2   87.24   34.95
 -21   3   2   15.31   21.92
  21   3  -2   42.30   25.33
  21   3  -2   65.87   37.98
 -21   3   2  120.34   47.80
  21   3  -2   61.28   32.53
  19  -3  -2   74.15   30.60
  19  -3  -2  156.91   47.62
  19  -3  -2  163.32   59.35
 -19  -3   2   60.08   29.36
 -19  -3   2   57.40   30.89
 -19  -3   2   52.79   26.24
  19   3  -2   42.23   23.39
  19   3  -2   30.39   29.04
 -19   3   2   53.64   24.95
  19   3  -2   94.12   40.52
 -19   3   2  154.20   41.76
 -19   3   2  159.63   53.07
 -17  -3   2   78.78   26.24
 -17  -3   2  125.59   41.67
  17  -3  -2  162.61   56.37
 -17  -3   2  113.46   36.56
  17  -3  -2  141.61   43.37
  17  -3  -2   76.90   26.19
  17   3  -2   99.20   38.38
  17   3  -2   66.23   24.13
 -17   3   2  135.43   46.49
 -17   3   2   76.72   34.15
 -17   3   2   62.24   25.87
  17   3  -2   70.35   31.56
 -15  -3   2   70.86   25.39
  15  -3  -2  130.27   42.15
  15  -3  -2  132.04   31.02
 -15  -3   2  115.73   36.31
  15  -3  -2  131.66   44.88
 -15  -3   2   85.58   31.16
 -15   3   2   86.74   27.61
 -15   3   2  132.93   43.27
  15   3  -2   83.85   23.58
  15   3  -2  139.52   40.04
  15   3  -2  106.13   32.64
 -15   3   2  113.55   38.47
  13  -3  -2   21.16   27.83
 -13  -3   2   27.73   17.17
  13  -3  -2   19.66   14.55
  13  -3  -2   17.38   20.89
 -13  -3   2   31.80   21.62
 -13  -3   2    6.77   13.31
 -13   3   2   43.93   21.83
 -13   3   2   40.45   17.73
  13   3  -2   33.13   13.84
  13   3  -2   12.33   19.08
  13   3  -2   50.10   22.32
 -13   3   2   68.65   28.83
  11  -3  -2   39.53   22.59
 -11  -3   2   25.00   20.05
 -11  -3   2   27.94   13.62
  11  -3  -2   34.92   26.82
  11  -3  -2   31.57   14.08
 -11  -3   2   18.29   15.68
 -11   3   2   18.28   13.27
  11   3  -2   20.83   11.06
 -11   3   2   15.78   18.32
  11   3  -2   31.84   19.06
 -11   3   2   36.26   22.14
  11   3  -2   41.90   19.80
   9  -3  -2  237.96   48.41
   9  -3  -2  209.01   49.50
   9  -3  -2  134.12   27.31
  -9  -3   2  149.66   29.47
  -9  -3   2  197.35   39.35
   9   3  -2  202.29   36.41
  -9   3   2  141.14   37.04
   9   3  -2   96.36   22.11
  -9   3   2  132.27   38.46
   9   3  -2  181.77   34.11
  -9   3   2  110.82   25.71
   7  -3  -2  368.43   57.42
  -7  -3   2  311.82   48.53
  -7  -3   2  372.42   49.24
  -7  -3   2  251.04   42.15
   7  -3  -2  267.19   43.52
  -7   3   2  277.93   43.73
   7   3  -2  354.39   46.40
  -7   3   2  351.86   54.67
  -7   3   2  253.15   51.00
   7   3  -2  304.29   42.17
   7   3  -2  383.93   47.91
  -5  -3   2   29.48   12.59
  -5  -3   2   20.46    8.27
   5  -3  -2    8.78    7.87
   5  -3  -2   27.22   17.50
  -5  -3   2    7.42   10.22
  -5  -3   2   11.74    7.07
   5  -3  -2   20.48   18.64
   5   3  -2   21.34    7.89
   5   3  -2   32.26   11.61
  -5   3   2   11.88   15.16
  -5   3   2   16.40   14.59
   5   3  -2   20.58    6.18
   3  -3  -2  338.49   50.49
   3  -3  -2  238.04   45.70
   3  -3  -2  247.97   36.83
  -3  -3   2  252.61   35.20
  -3  -3   2  332.94   38.38
  -3  -3   2  237.35   36.23
  -3   3   2  245.31   52.22
  -3   3   2  256.98   35.96
  -3   3   2  228.71   42.93
  -1  -3   2  251.38   44.87
  -1  -3   2  295.56   42.71
  -1  -3   2  353.57   40.84
   1  -3  -2  351.26   43.74
   1  -3  -2  322.60   50.61
   1  -3  -2  287.65   52.63
  -1   3   2  294.06   42.01
   1   3  -2  324.36   43.04
  -1   3   2  285.52   47.36
  -1  -3  -2  235.88   42.05
  -1  -3  -2  220.52   30.08
   1  -3   2  167.77   26.91
  -1  -3  -2  205.14   28.59
  -1  -3  -2  150.47   39.84
  -1   3  -2  178.41   25.13
   1   3   2  192.62   26.96
  -1   3  -2  195.94   27.96
  -1   3  -2  157.58   28.17
   1   3   2  145.89   30.16
   3  -3   2   90.58   16.23
  -3  -3  -2  104.16   21.73
  -3  -3  -2  127.11   23.56
  -3  -3  -2  118.15   28.15
   3  -3   2  107.51   21.01
   3  -3   2   81.49   17.52
  -3  -3  -2   54.71   23.63
   3  -3   2   62.70   14.50
  -3   3  -2   72.45   14.94
   3   3   2  103.32   19.44
   3   3   2  128.55   25.66
  -3   3  -2   89.40   18.68
   3   3   2  103.07   21.69
   5  -3   2  149.64   28.56
   5  -3   2  168.79   26.23
   5  -3   2  124.66   24.79
  -5  -3  -2  202.11   30.20
  -5  -3  -2  216.93   40.44
   5  -3   2  212.48   29.12
  -5  -3  -2  141.13   27.76
  -5   3  -2  135.02   25.88
   5   3   2  162.96   29.97
   5   3   2  164.36   29.06
  -5   3  -2  190.11   26.98
   5   3   2  175.37   28.11
  -7  -3  -2   12.86   12.50
   7  -3   2    9.82    8.67
   7  -3   2   25.06   13.80
  -7  -3  -2    7.63   14.59
  -7  -3  -2    8.88   10.66
   7  -3   2    8.09   12.00
   7  -3   2    4.75   10.00
  -7   3  -2   32.16   14.61
   7   3   2   12.73    3.98
   7   3   2   13.26   13.23
   7   3   2   30.59   14.39
   7   3   2   15.00   12.41
  -7   3  -2    0.37    9.33
  -7   3  -2   15.94   11.05
  -7   3  -2   26.03   12.45
  -9  -3  -2   77.84   21.76
   9  -3   2   59.96   16.22
   9  -3   2   57.66   21.22
   9  -3   2  103.44   27.29
  -9  -3  -2   83.86   28.20
   9  -3   2   83.06   21.80
  -9  -3  -2  122.80   29.21
  -9   3  -2   55.35   21.91
  -9   3  -2   44.32   15.77
  -9   3  -2   80.36   24.83
   9   3   2   92.72   25.63
   9   3   2   83.73   24.81
  -9   3  -2   90.98   22.13
   9   3   2   69.33   23.43
  11  -3   2  306.15   52.68
  11  -3   2  242.10   42.52
 -11  -3  -2  155.53   42.27
 -11  -3  -2  313.50   54.39
  11  -3   2  163.96   36.33
 -11  -3  -2  150.98   33.77
 -11   3  -2  205.63   36.60
  11   3   2  229.53   45.25
  11   3   2  264.94   45.61
 -11   3  -2  181.47   41.68
  11   3   2  196.38   41.95
 -11   3  -2  139.75   29.60
 -11   3  -2  234.31   46.26
 -13  -3  -2   -2.28   12.60
  13  -3   2   23.04   22.31
 -13  -3  -2    1.96   16.15
  13  -3   2   -2.10   14.53
  13  -3   2    2.47   18.01
 -13  -3  -2    3.00   16.87
 -13   3  -2    1.26   14.48
  13   3   2   -9.30   15.28
 -13   3  -2   -0.45   15.92
  13   3   2   -4.87   17.10
  13   3   2   -1.22   16.08
 -13   3  -2    3.81   14.83
 -13   3  -2   -0.95    9.33
  15  -3   2   54.42   27.61
 -15  -3  -2   27.56   24.43
 -15  -3  -2   34.81   25.44
  15  -3   2   32.56   23.24
  15  -3   2  112.83   37.64
 -15  -3  -2   40.04   19.74
 -15   3  -2   38.12   25.54
  15   3   2   58.92   28.36
  15   3   2   85.04   29.60
 -15   3  -2   43.16   16.49
 -15   3  -2   53.39   26.13
  15   3   2   58.47   28.56
 -15   3  -2   48.42   29.79
  17  -3   2   54.10   29.67
 -17  -3  -2  117.48   34.15
 -17  -3  -2   78.65   35.53
  17  -3   2  157.54   41.59
  17  -3   2   97.12   38.15
 -17  -3  -2  164.79   41.09
  17   3   2   84.75   36.25
  17   3   2  125.48   37.21
 -17   3  -2  119.37   37.75
  17   3   2  136.12   44.17
 -17   3  -2   75.77   22.16
 -17   3  -2    8.06   26.95
 -17   3  -2  166.61   49.60
 -19  -3  -2   23.06   24.31
 -19  -3  -2   41.23   23.52
 -19  -3  -2   40.89   27.01
  19  -3   2   20.12   30.07
  19  -3   2   27.79   30.66
  19  -3   2   17.34   25.53
 -19   3  -2   19.40   13.40
  19   3   2   13.88   26.53
 -19   3  -2   93.07   34.19
  19   3   2    7.40   28.64
  19   3   2   -5.51   23.41
 -19   3  -2   18.34   27.37
 -19   3  -2   43.91   35.41
 -21  -3  -2   -1.18   21.34
  21  -3   2   36.74   34.30
 -21  -3  -2  -10.40   18.16
  21  -3   2   20.21   27.98
 -21   3  -2   -5.42   22.79
 -21   3  -2    2.85   31.57
  21   3   2    1.42   23.88
 -21   3  -2   10.38   12.80
  21   3   2   21.32   30.43
  21   3   2   -0.10   25.52
  23  -3   2   16.41   31.71
 -23  -3  -2   24.87   40.76
 -23  -3  -2   -0.71   22.16
  23  -3   2   12.66   27.73
  23   3   2   29.60   33.68
  23   3   2   32.59   32.99
 -23   3  -2   31.74   37.11
 -23   3  -2    1.89   25.86
 -23   3  -2   15.73   14.04
 -25  -3  -2    9.15   24.52
  25  -3   2    4.66   33.41
  25  -3   2   10.46   32.23
 -25   3  -2   13.46   13.73
  25   3   2   -7.94   28.30
  25   3   2   32.47   35.87
 -25   3  -2   27.30   33.30
 -27  -3  -2   21.21   28.06
  27  -3   2   12.62   38.18
  27  -3   2   -1.19   32.31
  27   3   2   -7.76   32.72
 -27   3  -2   -1.37   12.73
 -27   3  -2  -15.45   24.64
  27   3   2   20.60   34.91
  28  -4  -2   96.09   49.36
 -28  -4   2   19.08   27.81
  28  -4  -2  130.10   58.90
 -28   4   2   17.41   30.39
  28   4  -2   12.55   39.07
  28   4  -2   31.23   40.97
 -28   4   2   24.27   17.63
  26  -4  -2   67.63   48.46
  26  -4  -2   74.06   57.16
 -26  -4   2   41.99   28.45
 -26   4   2   57.37   20.34
  26   4  -2   56.87   40.99
 -26   4   2   44.48   31.46
  26   4  -2   73.26   39.02
  24  -4  -2  135.30   60.42
 -24  -4   2   89.16   34.56
 -24  -4   2  140.20   45.50
  24  -4  -2  228.18   65.33
  24   4  -2  174.01   54.54
 -24   4   2   96.09   36.55
  24   4  -2  128.47   46.97
 -24   4   2  120.96   28.66
 -22  -4   2  172.10   51.03
  22  -4  -2  167.63   58.01
 -22  -4   2  199.83   44.46
  22  -4  -2  262.75   80.86
 -22   4   2  131.61   42.14
  22   4  -2  281.76   43.56
  22   4  -2  164.76   49.92
 -22   4   2   87.74   55.14
  22   4  -2  204.41   52.63
 -20  -4   2  139.47   40.02
 -20  -4   2  157.33   44.91
  20  -4  -2  319.02   68.07
  20  -4  -2  203.62   67.34
 -20   4   2  170.51   43.26
  20   4  -2  139.58   44.54
 -20   4   2  180.52   58.92
  20   4  -2  176.07   45.60
 -20   4   2  167.25   31.99
  20   4  -2  195.50   40.06
 -18  -4   2  408.68   74.94
  18  -4  -2  522.07   81.80
  18  -4  -2  601.61  109.08
 -18  -4   2  293.69   67.84
  18  -4  -2  493.09   67.59
 -18  -4   2  329.48   63.49
 -18   4   2  390.41   88.67
 -18   4   2  373.99   57.95
  18   4  -2  418.32   71.37
  18   4  -2  378.47   61.48
  18   4  -2  393.75   77.21
 -18   4   2  434.44   78.69
 -18   4   2  401.83   65.20
 -16  -4   2  382.75   73.50
  16  -4  -2  492.65   79.55
  16  -4  -2  418.41   93.70
 -16  -4   2  368.89   69.76
 -16  -4   2  438.09   65.38
  16  -4  -2  515.22   67.22
 -16   4   2  292.60   70.49
  16   4  -2  450.10   70.38
  16   4  -2  439.44   62.37
 -16   4   2  430.53   65.04
 -16   4   2  360.26   84.49
  16   4  -2  357.87   69.13
  14  -4  -2  560.67   95.29
  14  -4  -2  552.98   76.83
 -14  -4   2  460.83   80.80
  14  -4  -2  645.61   91.06
 -14  -4   2  618.71   77.43
 -14  -4   2  503.26   84.90
 -14   4   2  362.31   82.89
  14   4  -2  483.01   80.25
  14   4  -2  635.81   82.84
 -14   4   2  390.72   82.74
  14   4  -2  567.43   74.24
 -14   4   2  536.16   76.76
  12  -4  -2  818.63  105.57
 -12  -4   2  807.37  110.49
  12  -4  -2  831.63  122.35
 -12  -4   2  748.98  112.42
 -12  -4   2  820.23  105.21
  12   4  -2  766.54  108.52
  12   4  -2  759.93  107.48
 -12   4   2  658.42  111.38
 -12   4   2  906.28  106.40
  12   4  -2  737.30  102.31
 -12   4   2  627.92  111.91
 -10  -4   2  680.19   91.03
 -10  -4   2  818.58   94.31
 -10  -4   2  693.12   99.88
 -10  -4   2  659.74   97.77
  10  -4  -2  904.49  112.47
  10   4  -2  674.32   91.32
  10   4  -2  727.88   95.02
 -10   4   2  512.56  100.32
 -10   4   2  535.47  100.40
  10   4  -2  789.03   97.57
  -8  -4   2  743.81  105.37
  -8  -4   2  704.35   99.16
  -8  -4   2  793.41  104.90
  -8   4   2  919.55  110.46
   8   4  -2  821.31  103.35
  -8   4   2  734.08  110.83
   8   4  -2  775.93   99.52
   8   4  -2  686.46   97.84
  -6  -4   2 1333.73  174.34
  -6  -4   2 1362.50  177.71
   6  -4  -2 1161.79  174.58
   6  -4  -2 1535.74  187.62
  -6  -4   2 1446.93  173.79
  -6  -4   2 1272.95  177.67
   6  -4  -2 1147.62  184.20
   6   4  -2 1404.94  175.99
  -6   4   2 1551.57  175.26
  -4  -4   2 2229.19  280.47
   4  -4  -2 2334.29  280.34
   4  -4  -2 2605.60  293.14
  -4  -4   2 1955.25  277.85
  -4  -4   2 2177.38  282.47
  -4  -4   2 2063.80  279.70
   4  -4  -2 2226.00  290.16
  -4   4   2 2165.24  284.57
   2  -4  -2 1537.25  211.48
   2  -4  -2 1608.21  209.72
  -2  -4   2 1457.00  202.25
   2  -4  -2 1656.36  201.30
  -2   4   2 1606.92  204.00
   0  -4  -2 1219.53  198.15
   0  -4  -2 1542.08  195.65
   0  -4  -2 1375.17  193.70
   0  -4   2 1673.53  194.25
   0   4   2 1576.32  192.18
   0   4   2 1559.88  195.41
   0   4  -2 1588.64  194.52
  -2  -4  -2 1445.92  203.76
   2  -4   2 1325.69  196.70
  -2  -4  -2 1755.31  201.89
  -2  -4  -2 1509.68  200.21
   2  -4   2 1527.67  199.24
  -2   4  -2 1622.28  200.15
   2   4   2 1724.21  198.31
   4  -4   2 2303.21  250.04
   4  -4   2 2032.81  248.76
  -4  -4  -2 1665.73  253.34
  -4  -4  -2 1782.10  250.89
  -4  -4  -2 1811.76  250.66
   4  -4   2 1957.02  249.95
  -4   4  -2 2132.30  248.05
   4   4   2 1738.67  248.44
  -4   4  -2 2269.18  250.92
   4   4   2 1791.16  250.92
  -6  -4  -2 1304.10  163.46
   6  -4   2 1112.25  160.67
  -6  -4  -2 1180.40  165.82
   6  -4   2 1259.64  159.74
   6  -4   2 1263.80  159.75
  -6  -4  -2 1286.57  162.07
   6  -4   2 1193.26  161.07
   6   4   2 1236.80  160.45
   6   4   2 1292.57  162.91
  -6   4  -2 1182.09  160.30
  -6   4  -2 1241.34  159.68
   8  -4   2 1143.48  133.30
  -8  -4  -2  872.30  130.15
  -8  -4  -2  898.28  134.86
  -8  -4  -2  960.13  132.70
   8   4   2  965.47  130.26
   8   4   2  927.97  131.79
   8   4   2  932.71  123.87
   8   4   2 1210.99  133.12
 -10  -4  -2  752.88  120.05
 -10  -4  -2  742.01  115.89
 -10  -4  -2  707.72  117.27
  10  -4   2 1026.34  114.35
  10  -4   2 1007.45  117.61
  10  -4   2  861.88  119.28
 -10   4  -2  903.02  117.11
 -10   4  -2  804.88  115.42
  10   4   2  723.18  116.02
 -10   4  -2 1033.74  115.09
  10   4   2  847.11  118.77
 -10   4  -2  799.52  115.72
 -12  -4  -2  619.92   83.26
  12  -4   2  503.68   79.71
  12  -4   2  631.18   78.27
 -12  -4  -2  517.85   79.61
 -12  -4  -2  572.66   77.16
 -12   4  -2  400.28   75.20
 -12   4  -2  474.94   75.80
  12   4   2  525.74   78.90
  12   4   2  478.88   76.88
 -12   4  -2  423.53   75.32
 -12   4  -2  538.06   72.18
 -14  -4  -2  560.53   91.33
  14  -4   2  802.89   94.34
  14  -4   2  660.77   89.43
  14  -4   2  565.06   91.60
 -14  -4  -2  579.95   90.99
 -14  -4  -2  582.77   87.76
  14   4   2  713.43   93.03
  14   4   2  575.64   89.81
 -14   4  -2  557.01   81.31
 -14   4  -2  430.91   86.56
 -14   4  -2  463.69   86.82
 -14   4  -2  671.45   90.04
 -16  -4  -2  378.41   71.24
 -16  -4  -2  511.52   75.50
 -16  -4  -2  471.63   69.56
  16  -4   2  504.60   72.40
  16  -4   2  522.77   78.09
  16   4   2  416.94   73.04
  16   4   2  454.83   72.96
 -16   4  -2  460.15   72.82
 -16   4  -2  329.13   59.54
 -16   4  -2  328.51   69.92
 -16   4  -2  335.77   68.82
  18  -4   2  496.66   69.61
  18  -4   2  355.35   74.87
 -18  -4  -2  247.47   65.39
 -18  -4  -2  402.52   69.07
 -18  -4  -2  364.85   64.44
 -18   4  -2  437.66   69.61
  18   4   2  483.23   69.73
  18   4   2  317.15   72.93
 -18   4  -2  385.08   67.78
 -18   4  -2  316.25   53.68
 -18   4  -2  294.10   66.96
  18   4   2  315.22   66.39
 -20  -4  -2  134.11   40.94
  20  -4   2  132.03   47.25
 -20  -4  -2  137.02   42.20
  20  -4   2  146.29   43.00
  20   4   2  114.26   45.05
  20   4   2  290.75   53.94
 -20   4  -2  116.48   28.99
  20   4   2  124.40   41.85
 -20   4  -2  223.98   58.17
 -20   4  -2   93.03   37.77
 -22  -4  -2  146.81   45.22
  22  -4   2  144.71   54.38
  22  -4   2  146.04   47.32
 -22  -4  -2  185.34   46.52
  22   4   2  251.25   63.87
 -22   4  -2  105.16   29.48
 -22   4  -2  239.51   66.09
 -22   4  -2   80.71   38.94
  22   4   2  271.07   57.43
 -24  -4  -2   79.95   38.03
  24  -4   2  141.79   47.23
  24  -4   2  177.89   58.24
 -24   4  -2  105.31   26.71
  24   4   2  133.09   48.95
 -24   4  -2  184.85   61.81
  24   4   2  142.40   46.57
 -24   4  -2   88.72   40.60
  26  -4   2   57.77   41.14
  26  -4   2  137.84   53.38
 -26  -4  -2   52.33   32.22
 -26   4  -2   35.93   18.65
 -26   4  -2   60.44   32.23
  26   4   2   69.15   39.07
  26   4   2   24.88   39.51
 -28  -4  -2    0.26   25.08
  28  -4   2   43.83   49.33
  28   4   2   45.81   46.28
 -28   4  -2   75.37   35.19
  28   4   2   34.56   36.85
 -27  -5   2   11.22   25.88
  27  -5  -2   30.45   41.88
  27  -5  -2  -27.05   41.09
 -27   5   2   -7.97   24.09
 -27   5   2   10.82   16.53
  27   5  -2   -1.33   31.96
  27   5  -2  -10.19   29.04
  25  -5  -2   20.80   43.75
 -25  -5   2   18.34   29.59
 -25  -5   2   -3.37   22.32
  25  -5  -2   37.60   41.01
 -25  -5   2    6.70   10.69
 -25   5   2    9.10   25.92
  25   5  -2   -6.97   30.33
  25   5  -2   -3.79   28.25
 -25   5   2    0.06   15.48
 -23  -5   2   25.35   26.48
 -23  -5   2    8.31   11.94
  23  -5  -2   25.44   38.96
 -23  -5   2   39.05   34.00
  23  -5  -2   96.32   56.01
 -23   5   2   45.76   51.49
  23   5  -2    2.64   28.94
 -23   5   2   -3.65   22.33
  23   5  -2   54.32   36.76
 -23   5   2   -5.75   12.87
  23   5  -2   67.95   23.60
 -21  -5   2   31.32   30.32
  21  -5  -2   22.57   32.83
 -21  -5   2    5.86   21.96
  21  -5  -2   31.31   44.40
 -21  -5   2    7.52   11.54
 -21   5   2  -22.58   16.80
  21   5  -2   -8.58   24.31
 -21   5   2   -2.60   14.93
  21   5  -2   19.70   28.69
  21   5  -2    1.06   18.20
 -21   5   2  -16.08   28.85
 -19  -5   2   14.90   27.21
 -19  -5   2    5.89   11.53
 -19  -5   2   17.13   22.21
  19  -5  -2    1.30   32.61
 -19  -5   2   19.97   25.60
  19  -5  -2   27.80   33.91
  19   5  -2    4.71   16.09
  19   5  -2   19.39   25.13
 -19   5   2   19.03   21.42
 -19   5   2   41.29   39.29
 -19   5   2    3.50   14.22
  19   5  -2    3.34   23.99
  17  -5  -2  153.86   56.96
  17  -5  -2  134.20   43.67
 -17  -5   2  156.49   40.77
 -17  -5   2   81.80   29.22
 -17  -5   2   78.09   19.22
  17  -5  -2   90.47   29.62
 -17  -5   2  129.40   39.21
 -17   5   2   48.77   26.70
  17   5  -2   82.12   22.09
 -17   5   2  149.61   49.76
  17   5  -2  122.59   36.50
 -17   5   2  169.93   45.58
  17   5  -2  120.11   33.90
 -17   5   2   48.34   22.49
  15  -5  -2   92.67   37.31
  15  -5  -2   38.93   21.19
 -15  -5   2   56.89   16.24
 -15  -5   2  142.89   41.12
 -15  -5   2   90.21   29.80
  15  -5  -2   79.17   42.35
 -15  -5   2   64.96   24.01
 -15   5   2   36.58   21.60
 -15   5   2   35.20   19.09
  15   5  -2   46.75   25.70
 -15   5   2   76.79   36.56
 -15   5   2   92.86   37.09
  15   5  -2   48.07   16.55
  15   5  -2   69.19   25.05
  13  -5  -2   -3.52   21.56
  13  -5  -2   -9.16   13.07
 -13  -5   2   30.80   22.18
 -13  -5   2   17.45   10.67
  13  -5  -2   16.04   26.53
 -13  -5   2    6.54   16.00
 -13  -5   2   12.25   15.22
 -13   5   2   25.58   28.35
 -13   5   2    3.19   13.90
 -13   5   2    8.65   21.45
  13   5  -2    0.67   17.16
  13   5  -2    1.47    9.59
  13   5  -2    1.66   13.38
 -13   5   2   -4.17   12.10
  11  -5  -2  164.36   51.77
  11  -5  -2   63.04   20.93
  11  -5  -2  159.54   43.11
 -11  -5   2   71.86   17.25
 -11  -5   2   77.88   21.56
 -11  -5   2  133.62   35.33
 -11  -5   2  101.51   27.48
 -11   5   2   71.27   32.62
  11   5  -2   86.71   25.34
  11   5  -2   81.03   18.41
  11   5  -2   55.25   14.09
 -11   5   2  100.04   32.95
 -11   5   2   69.81   20.87
 -11   5   2   42.22   17.73
   9  -5  -2  143.74   28.87
  -9  -5   2  153.87   30.80
  -9  -5   2  198.85   40.22
   9  -5  -2  255.06   60.33
  -9  -5   2  104.61   24.13
   9  -5  -2  282.90   54.15
  -9   5   2  166.48   45.80
   9   5  -2  141.42   30.41
  -9   5   2  164.46   41.00
  -9   5   2  121.29   27.06
  -9   5   2  102.64   26.36
   7  -5  -2  362.44   66.77
  -7  -5   2  138.48   25.38
   7  -5  -2  161.48   27.73
  -7  -5   2  222.68   33.69
  -7  -5   2  137.14   26.66
  -7   5   2  241.76   49.98
  -7   5   2  223.51   43.20
  -7   5   2  153.30   30.43
  -7   5   2  158.80   27.21
  -5  -5   2  132.65   22.32
  -5  -5   2  148.04   24.41
   5  -5  -2  251.03   48.98
   5  -5  -2  141.67   25.03
   5  -5  -2  168.15   43.14
  -5  -5   2  155.27   26.04
  -5  -5   2  116.63   19.48
  -5   5   2  133.34   29.14
  -5   5   2  105.15   33.89
  -5   5   2   98.04   20.49
   5   5  -2  104.73   21.37
  -3  -5   2   51.32   10.12
   3  -5  -2   50.24   14.61
   3  -5  -2   74.91   29.89
   3  -5  -2   78.99   29.48
  -3  -5   2   70.49   17.07
  -3  -5   2   48.89   14.66
   3   5  -2   84.48   18.04
  -3   5   2   65.56   12.45
  -3   5   2   68.59   16.24
  -3   5   2   44.29   22.33
  -3   5   2   40.05   14.78
   1  -5  -2  301.68   47.17
   1  -5  -2  225.37   34.03
   1  -5  -2  252.09   49.06
   1  -5  -2  244.12   32.13
  -1  -5   2  222.65   32.15
  -1   5   2  134.06   40.07
  -1   5   2  172.40   29.05
   1   5  -2  219.49   33.24
  -1   5   2  161.54   30.77
  -1  -5  -2   98.58   19.73
   1  -5   2   24.34   13.90
  -1  -5  -2   75.25   18.96
  -1  -5  -2   41.61   20.59
  -1  -5  -2   48.34   24.01
   1   5   2   63.68   10.93
   1   5   2   51.90   14.71
  -1   5  -2   63.38   18.24
   1   5   2   70.43   14.34
  -3  -5  -2   72.55   30.32
  -3  -5  -2  120.90   31.68
   3  -5   2  105.10   23.86
  -3  -5  -2  147.27   25.71
  -3  -5  -2  159.82   29.52
   3   5   2  145.86   20.01
  -3   5  -2  165.79   29.69
   3   5   2  114.61   21.32
   3   5   2  140.75   22.72
   5  -5   2  214.68   32.68
   5  -5   2  204.50   34.41
   5  -5   2  171.83   33.89
  -5  -5  -2  240.08   38.55
  -5  -5  -2  218.16   36.62
  -5  -5  -2  207.47   40.92
   5  -5   2  295.15   35.80
   5   5   2  242.68   37.67
   5   5   2  285.41   35.80
  -5   5  -2  211.91   36.42
   5   5   2  187.58   31.68
   5   5   2  239.31   32.90
   7  -5   2  114.44   25.99
  -7  -5  -2  167.46   41.26
   7  -5   2  173.96   30.10
  -7  -5  -2  141.79   31.43
  -7  -5  -2  159.01   36.44
   7  -5   2  138.55   30.06
  -7   5  -2  148.67   27.24
   7   5   2  173.89   35.11
  -7   5  -2  168.13   32.58
   7   5   2  158.03   28.12
   9  -5   2  106.60   28.64
   9  -5   2   88.64   22.85
   9  -5   2   44.64   17.70
   9  -5   2   53.32   21.86
  -9  -5  -2   73.65   23.10
  -9  -5  -2   63.03   28.25
  -9  -5  -2   71.72   25.49
  -9   5  -2  108.31   24.90
   9   5   2   93.38   26.59
  -9   5  -2   72.95   22.72
   9   5   2   63.86   12.61
   9   5   2   90.04   22.13
   9   5   2   99.00   24.07
 -11  -5  -2   94.80   27.45
  11  -5   2  123.16   32.34
 -11  -5  -2  146.64   37.56
  11  -5   2   75.55   29.56
 -11  -5  -2   60.48   31.05
  11  -5   2  124.98   29.64
  11   5   2  107.87   31.71
  11   5   2  114.98   28.10
 -11   5  -2   66.89   23.40
  11   5   2  102.38   28.13
 -11   5  -2  151.02   33.01
  13  -5   2   59.45   28.00
  13  -5   2   72.71   25.82
 -13  -5  -2   42.39   26.92
  13  -5   2   63.49   30.01
 -13  -5  -2   44.86   22.29
 -13  -5  -2   99.43   33.02
 -13   5  -2   55.63   21.61
 -13   5  -2   79.83   27.39
  13   5   2   61.98   24.97
  13   5   2   57.17   26.50
 -13   5  -2   74.05   25.55
  13   5   2   70.58   24.92
 -13   5  -2   64.38   22.41
 -15  -5  -2   78.78   26.88
 -15  -5  -2  135.59   41.76
  15  -5   2   50.09   27.33
  15  -5   2  104.76   37.85
  15  -5   2   74.70   33.72
 -15  -5  -2   45.49   27.43
 -15   5  -2   30.39   21.97
  15   5   2  103.03   29.59
 -15   5  -2  133.76   36.31
 -15   5  -2  125.28   35.46
  15   5   2   83.45   30.19
  15   5   2   79.86   31.63
 -15   5  -2   28.48   17.92
  17  -5   2  115.56   42.59
  17  -5   2   78.94   33.85
 -17  -5  -2   89.58   32.74
 -17  -5  -2  158.66   41.74
 -17  -5  -2   61.25   33.32
  17  -5   2  118.23   40.76
  17   5   2   64.49   33.08
  17   5   2  159.85   37.80
 -17   5  -2   66.81   24.56
 -17   5  -2  185.31   45.65
 -17   5  -2  129.70   40.45
  17   5   2   89.55   35.59
 -17   5  -2   57.17   29.51
  19  -5   2   23.84   32.99
  19  -5   2   26.77   27.39
  19  -5   2   66.35   38.58
 -19  -5  -2    4.75   22.81
 -19  -5  -2   60.92   28.48
 -19   5  -2   15.96   24.46
 -19   5  -2    5.75   15.25
  19   5   2   25.22   28.28
 -19   5  -2   26.99   32.99
  19   5   2   13.96   25.80
  19   5   2   55.16   26.58
 -21  -5  -2   20.04   27.81
  21  -5   2   27.75   33.98
 -21  -5  -2   16.68   24.27
  21  -5   2    3.43   27.45
  21   5   2   44.57   23.37
  21   5   2   27.75   30.52
 -21   5  -2   32.42   35.67
 -21   5  -2   21.28   27.18
 -21   5  -2   16.86   17.90
  21   5   2   16.89   28.68
  23  -5   2  -27.75   30.40
 -23  -5  -2   31.40   27.00
 -23  -5  -2  -14.40   20.86
  23  -5   2   22.11   31.71
 -23   5  -2   -6.87   24.50
 -23   5  -2   22.35   18.05
  23   5   2   -3.55   25.72
  23   5   2   10.12   29.71
 -23   5  -2   29.89   41.77
 -25  -5  -2   -5.99   23.64
  25  -5   2   23.27   34.97
  25  -5   2    2.17   39.20
  25   5   2   21.50   30.74
 -25   5  -2   17.14   38.30
 -25   5  -2    6.21   16.66
 -25   5  -2   23.35   28.64
  25   5   2    2.62   34.98
  27  -5   2  -10.51   36.36
 -27  -5  -2   13.97   24.54
  27  -5   2    6.27   36.53
  27   5   2    8.20   32.75
 -27   5  -2  -12.67   27.47
  27   5   2   -4.28   28.67
  26  -6  -2   22.70   52.65
 -26  -6   2   42.61   31.42
 -26   6   2   35.73   31.91
  24  -6  -2    8.39   47.63
  24  -6  -2   53.94   42.39
 -24  -6   2   27.97   28.78
 -24  -6   2   34.18   36.68
  24   6  -2   65.29   35.97
 -24   6   2  109.81   55.28
  24   6  -2   78.94   34.26
 -24   6   2   80.10   29.90
 -24   6   2   54.56   22.52
  24   6  -2  117.22   29.65
  22  -6  -2   70.47   43.88
  22  -6  -2   59.53   53.01
 -22  -6   2   94.71   33.76
 -22  -6   2  133.31   20.90
 -22  -6   2  102.40   38.58
 -22   6   2   51.17   22.89
 -22   6   2   82.86   33.08
 -22   6   2   88.15   46.19
  22   6  -2   82.51   38.12
  22   6  -2  116.78   28.53
  22   6  -2   89.57   33.56
 -20  -6   2   34.96   27.94
  20  -6  -2  136.94   46.97
  20  -6  -2  159.26   61.11
 -20  -6   2  124.55   38.94
 -20  -6   2  107.01   22.58
 -20   6   2  131.47   48.59
  20   6  -2   76.71   35.26
  20   6  -2   94.94   32.00
 -20   6   2  188.29   39.63
 -20   6   2  125.47   30.43
  20   6  -2  111.03   26.91
  18  -6  -2  306.27   81.14
 -18  -6   2  180.62   35.33
 -18  -6   2  247.94   58.64
 -18  -6   2  238.14   63.20
  18  -6  -2  317.86   66.62
 -18  -6   2  243.07   51.35
 -18   6   2  315.53   43.68
  18   6  -2  206.42   44.15
  18   6  -2  207.73   39.71
 -18   6   2  300.03   48.51
  18   6  -2  218.19   51.27
 -18   6   2  316.55   72.04
  16  -6  -2  435.44   95.79
 -16  -6   2  290.49   62.70
 -16  -6   2  345.15   50.94
 -16  -6   2  401.09   61.56
  16  -6  -2  444.34   74.41
  16  -6  -2  381.63   59.91
 -16  -6   2  433.49   69.18
 -16   6   2  354.43   67.07
  16   6  -2  316.62   55.16
 -16   6   2  300.96   54.08
 -16   6   2  309.65   57.35
 -16   6   2  375.25   93.59
  16   6  -2  364.51   52.21
  16   6  -2  426.40   66.69
 -14  -6   2  601.22   84.29
  14  -6  -2  503.80  108.16
 -14  -6   2  443.41   78.01
  14  -6  -2  492.90   73.23
 -14  -6   2  534.34   74.01
  14  -6  -2  642.27   89.34
 -14  -6   2  462.00   67.32
 -14   6   2  543.63   79.99
  14   6  -2  469.48   66.22
  14   6  -2  511.00   78.04
 -14   6   2  451.49   70.37
 -14   6   2  485.55   72.05
  14   6  -2  458.46   67.55
 -14   6   2  487.10   84.35
 -12  -6   2  652.61   93.51
 -12  -6   2  633.14   90.23
  12  -6  -2  589.99   85.09
 -12  -6   2  593.16   81.36
 -12  -6   2  693.66   86.07
  12  -6  -2  764.20  100.29
  12  -6  -2  729.83  107.81
 -12   6   2  514.86   89.10
 -12   6   2  490.04   82.93
  12   6  -2  655.38   88.90
 -12   6   2  580.67   83.99
 -12   6   2  474.41   95.62
 -10  -6   2  613.57   88.74
  10  -6  -2  606.49  102.27
  10  -6  -2  622.17   83.47
 -10  -6   2  523.11   85.72
  10  -6  -2  797.14   98.28
 -10  -6   2  607.45   80.68
 -10   6   2  470.41   84.33
 -10   6   2  515.06   91.80
 -10   6   2  668.20   82.09
 -10   6   2  601.53   83.01
  -8  -6   2  802.65  121.15
  -8  -6   2  835.44  117.62
   8  -6  -2  904.46  135.01
   8  -6  -2  974.50  119.67
  -8  -6   2  762.01  121.45
  -8   6   2 1059.46  120.93
  -8   6   2 1031.28  117.41
  -8   6   2  800.05  118.85
  -6  -6   2  891.59  125.66
   6  -6  -2  903.07  137.41
  -6  -6   2  770.04  122.95
   6  -6  -2 1150.21  138.45
  -6  -6   2  903.52  125.15
   6  -6  -2 1042.47  124.67
   6   6  -2  934.80  122.37
  -6   6   2 1041.85  125.73
   4  -6  -2  850.04  131.65
   4  -6  -2 1031.16  143.80
  -4  -6   2 1101.59  133.15
  -4  -6   2 1022.90  130.93
   4  -6  -2  904.43  143.28
  -4  -6   2  952.26  132.60
  -4  -6   2 1148.78  129.20
   4   6  -2 1134.80  133.60
  -4   6   2  905.96  132.78
   2  -6  -2  690.77   95.67
   2  -6  -2  753.35   98.20
   2  -6  -2  728.53  107.22
   2  -6  -2  655.17  104.42
  -2   6   2  754.72   97.06
   0  -6   2  723.98   91.93
   0  -6  -2  524.16   98.37
   0  -6  -2  619.04   90.72
   0  -6  -2  585.00   96.69
   0  -6  -2  719.77   93.15
   0   6   2  790.82   91.95
   0   6  -2  744.35   93.33
   2  -6   2  684.17   95.32
  -2  -6  -2  748.54   96.24
  -2  -6  -2  729.18  101.19
  -2   6  -2  678.45   96.81
   4  -6   2  989.56  147.30
  -4  -6  -2 1275.54  150.02
  -4  -6  -2 1071.26  153.36
  -4  -6  -2 1248.30  150.61
  -4   6  -2 1056.87  149.32
   6  -6   2  870.66  105.93
   6  -6   2  973.16  108.67
  -6  -6  -2  696.44  113.89
  -6  -6  -2  754.87  109.39
   6  -6   2  822.73  108.89
  -6  -6  -2  715.29  110.69
  -6   6  -2  994.94  112.22
   6   6   2  731.81  109.57
  -6   6  -2  734.25  105.99
   6   6   2  792.37  104.02
   6   6   2  822.03  105.57
  -8  -6  -2  703.05  117.15
  -8  -6  -2  704.72  113.64
   8  -6   2  848.41  114.09
  -8  -6  -2  746.60  112.22
   8  -6   2 1012.33  111.26
   8   6   2  848.41  106.98
  -8   6  -2  974.35  114.32
   8   6   2  761.59  107.80
   8   6   2  763.58  113.21
  -8   6  -2  843.36  111.57
  10  -6   2  683.61   95.31
  10  -6   2  651.20   98.56
  10  -6   2  893.67  100.10
 -10  -6  -2  592.31  101.58
 -10  -6  -2  641.93   96.33
 -10  -6  -2  718.84   99.85
  10   6   2  622.97   97.65
 -10   6  -2  711.68   96.17
  10   6   2  607.13   92.33
 -10   6  -2  677.69   96.24
  10   6   2  734.61   88.73
  12  -6   2  473.07   66.51
  12  -6   2  343.13   68.39
 -12  -6  -2  452.47   72.82
 -12  -6  -2  433.96   67.95
 -12  -6  -2  465.66   66.80
  12   6   2  414.13   62.35
 -12   6  -2  361.93   65.32
 -12   6  -2  416.11   63.50
  12   6   2  387.68   67.86
 -14  -6  -2  389.61   68.51
 -14  -6  -2  451.65   67.23
 -14  -6  -2  404.23   70.65
  14  -6   2  377.08   70.57
  14  -6   2  447.99   66.67
  14   6   2  339.77   61.69
 -14   6  -2  364.10   60.72
 -14   6  -2  360.19   66.61
  14   6   2  419.96   68.78
 -16  -6  -2  518.57   71.53
  16  -6   2  409.30   83.91
 -16  -6  -2  357.13   77.11
  16  -6   2  427.42   71.36
 -16  -6  -2  523.30   74.95
 -16   6  -2  370.32   59.09
  16   6   2  392.26   66.34
  16   6   2  453.09   73.80
 -16   6  -2  456.00   71.38
 -16   6  -2  311.44   59.60
 -16   6  -2  376.08   62.02
  18  -6   2  320.32   55.96
 -18  -6  -2  231.57   51.68
 -18  -6  -2  140.69   48.64
  18  -6   2  232.67   58.64
 -18   6  -2  258.09   45.45
 -18   6  -2  224.55   40.57
 -18   6  -2  212.42   44.02
  18   6   2  140.93   43.97
  18   6   2  179.70   51.64
 -20  -6  -2  113.92   35.39
 -20  -6  -2   80.49   36.21
  20  -6   2   93.88   35.65
  20  -6   2   80.37   42.26
 -20   6  -2   83.17   30.14
  20   6   2  107.98   37.22
 -20   6  -2  118.32   39.28
 -20   6  -2   61.03   25.25
  20   6   2   73.80   36.42
 -22  -6  -2  165.55   39.16
  22  -6   2  109.90   49.27
 -22  -6  -2   43.96   30.41
  22  -6   2   95.09   39.67
 -22   6  -2   99.99   43.13
  22   6   2   72.72   35.70
 -22   6  -2   33.34   21.41
 -22   6  -2   21.91   26.82
  22   6   2  133.03   43.45
  24  -6   2   96.02   42.50
  24  -6   2   37.84   48.45
 -24  -6  -2   60.21   35.18
 -24   6  -2   33.53   21.38
  24   6   2   30.66   33.01
  24   6   2   63.98   37.99
 -24   6  -2   68.15   30.72
 -24   6  -2   -7.80   29.29
 -26  -6  -2   35.60   32.97
 -23  -7   2   38.11   30.77
 -23  -7   2   41.81   37.25
  23  -7  -2    8.26   37.13
  23  -7  -2   54.96   60.88
  23   7  -2   46.62   31.83
  23   7  -2   71.16   24.55
 -23   7   2    1.89   18.17
 -23   7   2    1.90   24.51
 -23   7   2  -28.52   27.52
 -21  -7   2   11.49   24.85
 -21  -7   2    8.80   10.59
 -21  -7   2   23.37   30.95
  21  -7  -2  112.39   61.89
  21  -7  -2    1.18   33.58
 -21   7   2   14.57   18.31
 -21   7   2  -10.02   19.48
  21   7  -2   11.56   28.64
  21   7  -2   27.45   20.88
 -21   7   2   13.70   34.99
  21   7  -2  -12.23    6.84
 -19  -7   2   18.97   24.15
 -19  -7   2   32.45   29.87
 -19  -7   2   -0.41   10.16
  19  -7  -2   22.30   33.00
  19   7  -2    2.61   10.91
  19   7  -2   35.15   28.77
 -19   7   2    2.33   20.81
 -19   7   2   16.24   32.39
 -19   7   2   11.62   17.66
  19   7  -2   22.67   15.65
  17  -7  -2  128.53   45.88
 -17  -7   2  144.33   36.21
  17  -7  -2   79.69   33.95
  17  -7  -2  159.77   65.91
 -17  -7   2   79.10   32.08
 -17  -7   2  156.97   48.18
 -17  -7   2   55.24   16.70
 -17   7   2  106.86   39.68
  17   7  -2   86.69   32.60
 -17   7   2   79.76   27.40
 -17   7   2   72.91   25.27
 -15  -7   2   30.48   13.52
 -15  -7   2   72.32   29.04
  15  -7  -2   99.10   37.47
  15  -7  -2   93.13   50.98
  15  -7  -2   31.54   22.67
 -15  -7   2  118.52   39.07
 -15  -7   2   61.16   26.78
  15   7  -2   28.83   23.88
 -15   7   2   85.89   32.13
 -15   7   2   22.97   17.72
 -15   7   2   43.54   21.18
 -13  -7   2   40.83   21.74
 -13  -7   2   52.76   24.60
 -13  -7   2   10.74   12.68
  13  -7  -2   65.75   33.11
  13  -7  -2   27.84   19.84
  13  -7  -2   58.87   43.72
 -13  -7   2   38.08   30.46
  13   7  -2   10.49   19.55
 -13   7   2   42.17   15.57
 -13   7   2   61.54   22.51
 -13   7   2   78.96   35.39
 -13   7   2   31.02   18.52
  11  -7  -2  218.44   49.17
 -11  -7   2  161.03   40.73
  11  -7  -2  118.46   29.07
 -11  -7   2  123.89   32.17
 -11  -7   2  110.91   28.21
  11  -7  -2  131.24   51.23
 -11   7   2  129.43   45.75
  11   7  -2   81.83   27.91
  -9  -7   2   97.52   25.38
  -9  -7   2  146.79   29.37
   9  -7  -2  180.46   32.97
   9  -7  -2  247.38   67.08
   9  -7  -2  270.42   52.67
  -9  -7   2  209.64   34.26
  -9   7   2   78.74   28.17
  -9   7   2  153.21   47.91
   9   7  -2  149.95   31.16
  -7  -7   2  131.94   29.62
  -7  -7   2  139.19   27.71
  -7  -7   2   71.16   19.48
   7  -7  -2   76.98   37.74
   7  -7  -2  209.62   44.84
   7  -7  -2   88.67   22.27
  -7   7   2   64.01   30.46
  -7   7   2   44.11   20.09
   7   7  -2   85.92   18.21
  -5  -7   2   62.63   17.49
   5  -7  -2   64.37   19.30
   5  -7  -2  159.97   41.55
  -5  -7   2   92.50   20.37
  -5  -7   2  125.52   22.84
   5  -7  -2  112.32   41.17
  -5   7   2   26.44   23.98
  -5   7   2   35.92   18.34
   3  -7  -2  159.19   40.53
   3  -7  -2  103.23   23.26
  -3  -7   2   85.36   21.96
   3  -7  -2  171.09   45.78
   3  -7  -2  115.27   27.17
   3   7  -2   81.17   24.41
  -3   7   2   67.59   22.56
   1  -7  -2   82.01   22.36
   1  -7  -2  114.83   34.06
   1  -7  -2   93.51   31.50
   1  -7  -2   89.91   20.97
  -1   7   2   47.43   18.45
   1   7  -2   54.05   22.44
  -1  -7  -2   70.24   25.66
  -1  -7  -2   67.73   19.81
  -1  -7  -2   54.06   17.64
  -1  -7  -2   79.20   29.52
   1   7   2   25.52   15.34
  -1   7  -2   57.76   22.28
  -3  -7  -2   86.41   22.27
  -3  -7  -2   67.15   25.34
  -3  -7  -2   64.76   21.82
  -3  -7  -2   58.62   27.57
  -3   7  -2   64.35   24.33
   3   7   2   49.31   17.91
  -5  -7  -2  104.42   34.45
   5  -7   2  187.53   27.60
  -5  -7  -2  173.60   35.71
   5  -7   2  115.09   24.16
  -5  -7  -2   74.43   31.03
  -5  -7  -2  146.43   30.00
   5   7   2  106.85   24.20
  -5   7  -2  146.53   34.41
  -7  -7  -2   34.93   23.93
  -7  -7  -2  102.08   34.82
   7  -7   2  135.26   26.44
   7  -7   2   85.58   19.58
  -7  -7  -2   86.92   25.35
   7  -7   2  167.56   32.14
  -7  -7  -2  168.62   38.02
   7   7   2   79.49   19.35
  -7   7  -2   95.92   28.68
   7   7   2   95.62   26.83
  -9  -7  -2   62.90   26.93
   9  -7   2   51.93   22.85
  -9  -7  -2   33.13   26.10
   9  -7   2   29.62   15.28
   9  -7   2   36.66   22.15
  -9  -7  -2   31.92   18.03
   9   7   2   15.60   16.18
   9   7   2   29.39   12.70
  -9   7  -2   64.07   21.54
  -9   7  -2   33.74   20.43
  11  -7   2   45.68   20.88
  11  -7   2  107.31   32.30
  11  -7   2   81.41   28.80
 -11  -7  -2   52.97   26.18
 -11  -7  -2   49.25   22.68
 -11  -7  -2   27.27   26.79
  11   7   2   43.38   22.40
  11   7   2   30.91   13.53
 -11   7  -2   59.91   22.70
 -11   7  -2   33.57   22.94
 -13  -7  -2   60.89   25.52
  13  -7   2   99.03   35.45
  13  -7   2   53.43   30.33
 -13  -7  -2   87.68   32.66
  13  -7   2   69.74   25.67
 -13  -7  -2   13.05   25.99
 -13   7  -2   50.24   24.79
 -13   7  -2  109.09   32.22
  13   7   2   63.90   27.63
  15  -7   2   44.58   26.96
 -15  -7  -2   67.06   27.78
  15  -7   2   70.44   35.34
 -15  -7  -2   57.61   33.78
  15  -7   2   40.89   32.90
 -15  -7  -2  120.54   37.93
  15   7   2   37.07   26.40
 -15   7  -2   36.19   24.82
  15   7   2   64.63   23.14
 -17  -7  -2    1.79   24.54
  17  -7   2   37.48   36.06
  17  -7   2   64.39   36.50
  17  -7   2   15.20   24.91
 -17  -7  -2   16.51   23.63
  17   7   2    3.62   21.68
  17   7   2   12.98   17.92
  17   7   2   37.41   21.27
 -17   7  -2   49.54   24.62
  19  -7   2   -5.98   25.71
  19  -7   2   21.22   35.13
 -19  -7  -2   14.84   22.87
 -19  -7  -2  -10.28   22.82
  19   7   2   -6.69   21.72
  19   7   2   22.35   22.10
 -19   7  -2   13.68   21.02
  19   7   2   -4.21   17.18
  21  -7   2    8.27   28.64
  21  -7   2    4.28   35.23
 -21  -7  -2   -9.25   20.64
 -21  -7  -2   -1.87   25.19
  21   7   2  -26.40   19.50
  21   7   2   -5.23   19.36
  21   7   2   15.51   22.37
 -21   7  -2    1.77   18.28
  23  -7   2    0.93   31.92
  23  -7   2   20.37   41.84
 -23  -7  -2   64.43   28.97
 -23  -7  -2   -3.94   24.61
  23   7   2    6.59   27.41
 -23   7  -2    9.46   21.54
 -23   7  -2   -4.23   13.87
 -23   7  -2   -4.82   12.07
  23   7   2   59.37   21.00
  23   7   2   27.85   27.15
 -22  -8   2  121.07   42.42
  22  -8  -2   52.87   42.27
 -22  -8   2   17.78   28.51
  22  -8  -2   74.75   63.28
 -22   8   2   30.83   21.96
 -22   8   2   -5.55   11.18
 -22   8   2    1.98   18.77
  20  -8  -2   97.25   44.67
 -20  -8   2   85.58   35.09
  20  -8  -2  152.49   68.69
 -20  -8   2  123.60   39.46
 -20   8   2   59.27   26.66
 -18  -8   2   99.69   36.70
  18  -8  -2  242.96   74.09
  18  -8  -2  193.04   51.06
 -18  -8   2  163.79   40.83
 -18   8   2   88.82   30.59
  16  -8  -2  313.06   72.95
 -16  -8   2  276.11   35.48
 -16  -8   2  211.09   46.93
 -16  -8   2  248.63   64.35
 -16  -8   2  181.86   50.31
  16  -8  -2  285.13   84.36
  16  -8  -2  275.83   60.48
  16   8  -2  168.37   43.32
 -16   8   2  159.20   41.80
 -14  -8   2  257.22   56.82
  14  -8  -2  252.08   63.40
  14  -8  -2  346.02   90.61
  14  -8  -2  334.46   55.20
 -14  -8   2  330.43   73.18
 -14  -8   2  425.71   59.79
 -14  -8   2  393.75   47.53
 -14   8   2  229.50   50.75
 -12  -8   2  387.38   47.81
 -12  -8   2  400.26   56.78
  12  -8  -2  429.08   95.68
 -12  -8   2  274.42   55.37
 -12  -8   2  426.65   64.14
  12  -8  -2  305.91   54.03
  12  -8  -2  315.66   66.41
 -12   8   2  233.00   50.55
 -12   8   2  213.23   67.01
 -10  -8   2  323.57   57.09
  10  -8  -2  384.79   65.84
 -10  -8   2  341.08   62.19
  10  -8  -2  382.12   57.12
  10  -8  -2  346.87   85.18
 -10  -8   2  421.65   56.71
 -10   8   2  218.56   66.85
  10   8  -2  372.44   53.36
 -10   8   2  349.10   56.41
  -8  -8   2  577.90   81.33
   8  -8  -2  615.88   83.64
   8  -8  -2  649.60  104.52
  -8  -8   2  456.03   81.94
   8  -8  -2  675.34   93.19
  -8  -8   2  623.49   85.68
  -8   8   2  624.12   84.69
   6  -8  -2  751.77  100.93
   6  -8  -2  649.78   90.34
   6  -8  -2  626.28  106.98
  -6  -8   2  637.16   90.67
  -6   8   2  612.87   91.57
   4  -8  -2  682.74   94.71
   4  -8  -2  642.84   92.23
  -4  -8   2  650.36   89.99
   4  -8  -2  754.41  103.20
   4  -8  -2  628.46  107.37
  -4   8   2  684.01   94.80
   4   8  -2  710.92   94.65
   2  -8  -2  768.44  107.31
   2  -8  -2  819.06  117.42
   2  -8  -2  750.41  118.16
   2  -8  -2  818.45  109.07
   2   8  -2  737.66  109.20
  -2   8   2  869.89  109.75
   0  -8  -2  678.94  108.78
   0  -8  -2  780.12  102.20
   0  -8  -2  655.68  109.77
   0  -8  -2  745.53  102.63
   0   8  -2  706.28  104.11
   0   8   2  885.49  103.80
  -2  -8  -2  682.16  111.64
  -2  -8  -2  790.26  106.86
  -2  -8  -2  697.86  106.85
   2   8   2  893.47  107.37
  -2   8  -2  841.79  110.38
  -4  -8  -2  785.93  106.29
  -4  -8  -2  751.40  108.01
   4   8   2  867.75  105.52
  -4   8  -2  667.80  108.54
  -6  -8  -2  669.19   98.18
  -6  -8  -2  651.85   94.09
   6  -8   2  827.51   93.12
  -6  -8  -2  484.71   98.09
   6  -8   2  614.63   93.50
   6   8   2  748.03   91.95
  -6   8  -2  640.00   97.35
   8  -8   2  538.19   74.92
   8  -8   2  575.58   82.85
  -8  -8  -2  507.12   80.65
  -8  -8  -2  479.05   88.16
  -8  -8  -2  553.53   85.79
  -8   8  -2  638.69   85.68
   8   8   2  611.42   76.99
 -10  -8  -2  374.19   70.91
  10  -8   2  417.32   66.49
  10  -8   2  389.92   57.79
 -10  -8  -2  517.77   69.20
 -10  -8  -2  389.78   62.38
  10   8   2  420.30   55.22
  10   8   2  337.03   60.88
 -10   8  -2  399.35   64.92
 -10   8  -2  322.56   58.78
 -12  -8  -2  380.77   59.88
 -12  -8  -2  384.47   56.00
  12  -8   2  297.11   50.70
  12  -8   2  298.19   64.64
 -12  -8  -2  313.20   65.39
  12   8   2  304.14   53.81
 -12   8  -2  209.71   52.43
 -12   8  -2  242.93   52.68
  14  -8   2  508.04   72.59
 -14  -8  -2  305.80   72.98
  14  -8   2  329.28   59.85
 -14  -8  -2  436.37   65.89
 -14  -8  -2  441.54   69.19
  14  -8   2  330.70   73.70
 -14   8  -2  275.80   63.60
  14   8   2  333.97   63.26
  16  -8   2  356.05   62.98
 -16  -8  -2  226.91   50.07
 -16  -8  -2  195.51   54.47
  16  -8   2  180.44   45.14
  16  -8   2  248.60   61.34
 -16   8  -2  124.77   40.21
  16   8   2  169.24   46.79
  16   8   2  244.12   35.81
  18  -8   2   93.73   36.44
 -18  -8  -2  128.40   45.06
  18  -8   2  367.75   79.19
  18  -8   2  214.34   53.40
 -18  -8  -2  182.38   42.98
 -18   8  -2   70.84   31.87
  18   8   2  153.26   30.64
  18   8   2   76.42   34.73
 -20  -8  -2  156.59   39.51
  20  -8   2   49.14   45.56
 -20  -8  -2   76.71   38.77
  20  -8   2   84.20   36.29
  20   8   2  119.71   37.95
  20   8   2  108.66   28.56
 -20   8  -2   29.57   24.58
 -22  -8  -2   55.70   34.06
  22  -8   2   66.87   49.85
 -22  -8  -2   68.81   37.91
  22  -8   2   25.11   33.14
 -22   8  -2    2.42   23.09
  22   8   2   60.49   23.99
  22   8   2   57.02   32.50
  19  -9  -2   13.49   50.96
 -19  -9   2   19.63   29.85
 -19  -9   2    7.45   27.91
  19  -9  -2   -2.37   30.84
 -19   9   2   13.64   22.11
  19   9  -2    1.81    8.64
 -17  -9   2   21.21   26.05
 -17  -9   2   -6.67   23.42
  17  -9  -2  -31.13   36.85
  17  -9  -2   12.80   30.27
  17   9  -2   -2.63    6.93
 -17   9   2   -7.66   17.21
 -15  -9   2   16.49   22.93
 -15  -9   2    1.00   23.54
  15  -9  -2  -14.34   38.91
 -15  -9   2   32.90   33.79
  15  -9  -2    8.15   27.24
 -15   9   2    5.50   20.58
 -13  -9   2   11.21   22.04
 -13  -9   2  -15.98   23.60
  13  -9  -2   -1.67   24.58
 -13  -9   2   14.21   19.95
  13  -9  -2   19.74   41.31
  13  -9  -2    2.47   19.91
 -13   9   2   12.49   20.54
  11  -9  -2   31.39   39.11
 -11  -9   2   16.98   21.52
 -11  -9   2   19.17   18.68
  11  -9  -2   -5.13   17.88
  11  -9  -2   16.92   25.41
 -11  -9   2    9.96   24.14
 -11   9   2   -1.33   17.32
 -11   9   2   21.78   27.00
  11   9  -2   27.38   12.93
  -9  -9   2    9.37   20.34
   9  -9  -2   31.77   25.83
  -9  -9   2    4.37   18.70
   9  -9  -2    2.48   17.29
   9  -9  -2    4.06   34.25
  -9  -9   2   25.25   17.10
  -9   9   2   13.73   24.80
  -9   9   2   19.82   20.03
   7  -9  -2   23.70   23.61
   7  -9  -2   25.64   18.36
  -7  -9   2   10.75   18.22
  -7  -9   2    1.58   15.41
   7  -9  -2   37.69   39.74
  -7   9   2   -0.51   15.86
   5  -9  -2    2.09   15.04
  -5  -9   2   20.32   13.72
   5  -9  -2    5.65   27.66
  -5  -9   2   21.34   15.29
   5  -9  -2    0.37   14.32
   5  -9  -2   18.90   21.00
  -5   9   2    1.96   18.07
   3  -9  -2   61.21   32.72
   3  -9  -2   28.05   17.43
   3  -9  -2   63.29   28.52
   3  -9  -2   47.75   19.36
  -3   9   2   24.52   18.96
   3   9  -2   38.21   24.22
   1  -9  -2   26.09   25.96
   1  -9  -2   53.38   25.98
   1  -9  -2   28.90   16.23
  -1   9   2   14.68   18.45
   1   9  -2   22.28   23.74
  -1  -9  -2   28.25   21.91
  -1  -9  -2   21.22   14.75
  -1  -9  -2   32.30   19.48
  -1  -9  -2   26.67   22.40
   1   9   2   10.12   17.09
  -1   9  -2    4.17   21.58
  -3  -9  -2   10.47   21.23
  -3  -9  -2   17.34   18.26
  -3  -9  -2   16.89   15.79
  -3  -9  -2   54.72   20.72
   3   9   2   25.95   19.29
  -3   9  -2   -1.38   23.94
  -5  -9  -2   82.55   30.01
  -5  -9  -2   -5.25   14.58
  -5  -9  -2   34.38   25.81
  -5  -9  -2   26.57   17.08
   5  -9   2   40.00   16.67
   5  -9   2   37.48   18.85
  -5   9  -2   47.27   28.59
   5   9   2   17.70   17.22
  -7  -9  -2    2.33   16.62
  -7  -9  -2   26.05   25.91
  -7  -9  -2   14.54   16.78
   7  -9   2   34.16   20.78
   7  -9   2   44.30   20.45
  -7  -9  -2   -3.94   20.62
   7   9   2   12.35   16.58
  -7   9  -2   14.72   27.38
   9  -9   2   36.93   24.32
  -9  -9  -2   -2.71   21.58
  -9  -9  -2    9.20   18.78
   9  -9   2   21.78   22.31
  -9  -9  -2   15.08   24.60
  -9  -9  -2   14.22   18.24
   9   9   2    5.40   14.85
  -9   9  -2    7.35   24.40
  11  -9   2   17.04   15.08
 -11  -9  -2   11.10   18.92
 -11  -9  -2   31.13   29.82
 -11  -9  -2    9.14   27.89
 -11  -9  -2    1.41   17.93
  11  -9   2   30.07   26.56
  11  -9   2   12.91   25.53
 -11   9  -2    8.98   23.29
  11   9   2   11.54   17.04
 -13  -9  -2   37.81   33.50
  13  -9   2   71.11   31.57
 -13  -9  -2   39.72   30.06
  13  -9   2   22.43   30.34
 -13  -9  -2   13.25   22.40
  13  -9   2   21.20   18.01
 -13   9  -2   44.53   25.18
  13   9   2   30.02   20.91
 -13   9  -2    4.84   24.46
 -15  -9  -2    4.45   29.98
  15  -9   2    2.41   19.26
 -15  -9  -2   13.83   23.36
  15  -9   2   -0.55   29.83
  15  -9   2   18.04   32.26
  15   9   2   -3.22   14.98
 -15   9  -2   -6.72   25.71
 -15   9  -2    8.36   24.96
  17  -9   2   32.47   34.67
 -17  -9  -2   29.95   33.72
  17  -9   2   41.20   39.78
 -17  -9  -2   23.70   26.41
  17  -9   2    1.68   22.20
 -17   9  -2   -0.99   25.80
  19  -9   2   39.28   41.57
  19  -9   2    6.64   24.58
 -19  -9  -2   13.95   30.13
 -19  -9  -2   30.31   30.50
 -19   9  -2   -9.54   24.37
  19   9   2   -1.21    9.53
 -16 -10   2   79.74   32.01
  16 -10  -2   70.08   35.50
 -16 -10   2   60.91   29.81
  16 -10  -2  225.18   71.61
 -16  10   2   74.67   28.53
  14 -10  -2   85.52   59.80
 -14 -10   2  158.67   48.00
 -14 -10   2   99.55   32.32
 -14 -10   2  102.55   31.27
  14 -10  -2  114.98   36.26
 -14  10   2   46.69   28.04
  12 -10  -2  279.47   71.13
  12 -10  -2  182.60   34.14
 -12 -10   2  126.16   44.07
 -12 -10   2  129.94   34.23
 -12 -10   2   58.57   25.95
  12 -10  -2  103.99   34.34
 -12  10   2   51.46   27.07
 -10 -10   2  213.54   48.32
 -10 -10   2  135.97   31.13
 -10 -10   2   96.85   33.20
  10 -10  -2  190.25   41.39
  10 -10  -2  156.98   57.96
 -10  10   2  122.23   36.38
   8 -10  -2  168.68   37.41
  -8 -10   2  108.92   32.65
   8 -10  -2  183.01   41.14
   8 -10  -2  193.40   60.25
  -8 -10   2  144.39   39.97
   6 -10  -2  168.68   61.42
  -6 -10   2  214.64   40.46
   6 -10  -2  188.48   41.15
   6 -10  -2  306.18   42.58
   6 -10  -2  225.15   44.46
  -6 -10   2  265.84   43.57
  -6  10   2  120.42   40.19
  -4 -10   2  201.18   37.38
   4 -10  -2  290.23   43.65
   4 -10  -2  240.70   41.07
   4 -10  -2  204.61   45.13
  -4 -10   2  228.78   37.99
   4 -10  -2  156.01   54.92
   4  10  -2  212.14   46.47
  -4  10   2  198.40   44.50
   2 -10  -2  277.07   44.10
   2 -10  -2  255.07   64.52
   2 -10  -2  236.53   49.19
  -2  10   2  255.21   48.22
   2  10  -2  263.52   53.36
   0 -10  -2  270.74   51.28
   0 -10  -2  360.97   49.27
   0 -10  -2  248.27   60.20
   0 -10  -2  249.54   44.69
   0  10  -2  264.69   55.04
   0  10   2  256.19   51.44
  -2 -10  -2  223.01   39.12
  -2 -10  -2  176.67   48.14
  -2 -10  -2  130.87   44.42
  -2 -10  -2  341.92   44.55
   2  10   2  232.42   46.25
  -2  10  -2  253.73   51.75
  -4 -10  -2  176.43   34.58
  -4 -10  -2  183.32   46.98
  -4 -10  -2   94.72   37.45
   4  10   2  244.41   43.60
  -4  10  -2  163.20   42.05
  -6 -10  -2  208.06   41.46
  -6 -10  -2  223.41   49.20
  -6 -10  -2  216.80   53.03
   6 -10   2  249.65   42.53
   6 -10   2  274.15   40.16
  -6  10  -2  139.57   47.12
   6  10   2  219.48   41.76
  -8 -10  -2  193.18   46.26
   8 -10   2  204.22   46.22
  -8 -10  -2  133.30   43.53
   8 -10   2  280.04   41.92
  -8 -10  -2  155.00   36.32
   8  10   2  175.81   36.30
  -8  10  -2  128.01   44.79
  10 -10   2  151.99   39.17
 -10 -10  -2   41.37   36.53
 -10 -10  -2  184.44   42.96
  10 -10   2  269.55   42.98
 -10 -10  -2  130.30   32.62
 -10  10  -2   55.65   37.60
  10  10   2  144.92   30.64
  12 -10   2  170.19   43.74
 -12 -10  -2  166.98   48.08
  12 -10   2  238.81   45.30
 -12 -10  -2  153.42   38.46
 -12  10  -2   72.14   41.09
 -14 -10  -2  151.26   34.81
  14 -10   2  215.62   44.29
 -14 -10  -2   44.88   37.02
 -14 -10  -2   15.22   24.68
  14 -10   2   98.82   38.79
  14 -10   2   81.82   24.44
 -14  10  -2   40.94   33.35
  16 -10   2   96.92   42.69
 -16 -10  -2   94.44   41.33
  16 -10   2  146.49   50.15
 -16 -10  -2  125.89   32.99
 -16  10  -2   29.82   32.72
 -13 -11   2   22.03   29.90
  11 -11  -2   -3.83   19.55
 -11 -11   2   12.79   26.28
 -11 -11   2    6.88   31.16
  11 -11  -2   18.04   23.74
  11 -11  -2   90.78   55.84
  11 -11  -2   -5.71   20.25
 -11  11   2   15.19   26.92
  -9 -11   2   40.02   25.72
   9 -11  -2   17.38   41.93
   9 -11  -2   65.13   25.34
  -9 -11   2   75.33   32.10
   9 -11  -2    8.27   19.78
   9 -11  -2   18.90   21.90
  -9  11   2   13.58   25.05
   7 -11  -2   28.66   20.30
   7 -11  -2    3.23   35.52
   7 -11  -2    9.26   17.97
  -7 -11   2   37.62   22.92
   7 -11  -2    9.12   23.06
  -7 -11   2   79.95   29.52
  -7  11   2   11.75   22.30
   5 -11  -2   -6.67   20.09
  -5 -11   2   50.78   24.04
   5 -11  -2   22.00   35.61
   5 -11  -2   45.25   19.15
  -5 -11   2   33.59   20.24
   5 -11  -2   16.19   19.58
  -5  11   2   47.60   27.89
   3 -11  -2   79.99   39.33
   3 -11  -2    8.42   21.75
   3 -11  -2    1.80   13.89
   3 -11  -2   -0.19   16.22
   3  11  -2   21.43   26.92
  -3  11   2   19.91   25.46
   1 -11  -2   23.13   15.55
   1 -11  -2   23.30   23.98
   1 -11  -2   32.31   32.17
   1 -11  -2   38.27   21.14
   1  11  -2   33.93   29.79
  -1  11   2   15.57   23.64
  -1 -11  -2   25.76   15.16
  -1 -11  -2    3.70   24.27
  -1 -11  -2    3.60   21.31
  -1 -11  -2   46.57   22.33
  -1  11  -2   24.58   29.66
   1  11   2    0.09   23.27
  -3 -11  -2   26.66   22.43
  -3 -11  -2   19.30   15.87
  -3 -11  -2   16.23   28.34
  -3 -11  -2    5.25   26.09
   3  11   2   31.11   26.62
  -3  11  -2   15.42   30.74
  -5 -11  -2   22.87   22.82
  -5 -11  -2   11.40   16.47
  -5 -11  -2   22.97   30.36
  -5 -11  -2   28.37   29.76
  -5  11  -2   17.46   31.44
   5  11   2  -13.68   20.63
  -7 -11  -2    6.82   20.44
  -7 -11  -2   14.64   18.45
   7 -11   2   19.95   23.29
  -7 -11  -2    3.42   23.15
  -7 -11  -2   21.55   29.73
  -7  11  -2    5.37   31.41
   7  11   2   13.95   20.87
  -9 -11  -2   -3.52   23.60
   9 -11   2   63.18   28.56
  -9 -11  -2   10.98   25.41
  -9 -11  -2   35.38   19.95
  -9 -11  -2    7.42   21.65
  -9  11  -2   13.93   33.14
   9  11   2   30.28   20.53
 -11 -11  -2  -17.50   23.10
 -11 -11  -2   21.92   23.01
  11 -11   2   21.26   29.10
 -11 -11  -2    9.62   20.56
 -11  11  -2   29.20   33.59
 -13 -11  -2   21.21   32.68
  -6 -12   2  110.61   32.35
   4 -12  -2   96.28   49.00
   2 -12  -2  237.51   58.30
   2  12  -2  133.78   43.69
  -2  12   2  135.31   42.09
   0 -12  -2  131.55   52.29
   0  12  -2  128.25   44.11
   0  12   2  144.44   40.99
  -2 -12  -2  105.94   44.96
  -2 -12  -2  248.67   51.34
  -2  12  -2  110.76   44.38
   2  12   2  134.68   40.46
  -4 -12  -2  114.61   25.99
  -4 -12  -2  203.61   47.79
  -4 -12  -2   82.37   39.39
  -4 -12  -2  119.63   30.76
 -28   0   3   -9.57   20.29
  28   0  -3    0.97   37.59
  28   0  -3    0.40   38.32
 -26   0   3    2.40   21.99
  26   0  -3   38.40   41.00
  26   0  -3    2.50   37.26
  24   0  -3   27.40   36.91
  24   0  -3   13.84   36.98
 -24   0   3   12.98   21.79
  22   0  -3   20.19   32.53
 -22   0   3    1.83   22.59
 -22   0   3    9.21   22.55
  22   0  -3   39.89   38.82
  20   0  -3   68.16   23.06
 -20   0   3   22.21   23.39
  20   0  -3   60.41   35.58
 -20   0   3   55.50   29.43
  20   0  -3   -1.52   30.25
 -20   0   3   39.39   23.05
  18   0  -3  157.17   49.58
 -18   0   3  176.23   47.82
  18   0  -3  188.65   57.09
 -18   0   3  159.64   47.27
 -18   0   3  100.68   32.92
  18   0  -3  131.56   33.22
 -16   0   3  114.04   35.71
  16   0  -3  153.15   42.67
  16   0  -3  181.06   52.06
  16   0  -3  102.63   28.52
 -16   0   3   89.33   27.33
  14   0  -3  105.90   36.95
 -14   0   3  115.03   29.05
 -14   0   3  114.90   37.54
 -14   0   3  148.35   43.29
  14   0  -3  105.97   28.23
  14   0  -3  148.86   47.76
 -12   0   3  656.67   90.57
  12   0  -3  536.34   79.68
 -12   0   3  555.37   89.86
  10   0  -3  213.18   49.60
  10   0  -3  218.57   47.58
  10   0  -3  137.34   27.20
 -10   0   3  135.87   37.20
 -10   0   3   99.67   24.36
 -10   0   3  127.14   38.93
   8   0  -3  196.39   41.02
  -8   0   3   92.20   27.98
  -8   0   3   74.50   18.43
   8   0  -3   95.04   29.56
  -8   0   3  104.07   30.85
   8   0  -3  105.72   21.78
  -6   0   3  639.27   96.82
   6   0  -3  792.21   99.60
  -6   0   3  602.59   88.16
  -6   0   3  722.24   99.40
   6   0  -3  666.65   89.04
  -4   0   3   56.83   14.17
  -4   0   3   54.33   24.49
   4   0  -3   89.90   28.22
   4   0  -3   51.75   14.25
   4   0  -3   69.31   24.01
  -4   0   3   66.35   23.84
   2   0  -3   16.23   16.45
   2   0  -3   -1.70   11.70
  -2   0   3   19.02    8.93
   2   0  -3   16.65    8.45
  -2   0   3   18.74   16.46
  -2   0   3   23.28   15.98
   0   0  -3    1.53    6.51
   0   0   3    2.77    7.02
   0   0  -3    4.49    7.11
   0   0  -3    1.59   13.33
   0   0  -3   -9.22   11.79
   0   0   3   10.07   13.97
   0   0   3    6.09   12.61
  -2   0  -3   25.84   17.15
   2   0   3   60.67   15.50
  -2   0  -3   66.04   16.13
  -2   0  -3   30.09   11.85
   2   0   3   71.87   23.27
  -2   0  -3   50.83   20.69
   2   0   3   42.34   13.72
  -4   0  -3   38.74   21.02
  -4   0  -3   64.67   17.18
   4   0   3  108.95   22.58
   4   0   3   88.53   20.88
  -4   0  -3   93.04   21.72
   4   0   3   69.29   24.86
   6   0   3  113.23   24.09
   6   0   3  117.24   18.77
  -6   0  -3  180.75   39.80
   6   0   3  171.80   28.59
   6   0   3   90.00   27.97
  -6   0  -3  119.07   23.82
  -6   0  -3  153.04   26.41
   8   0   3  290.78   42.78
  -8   0  -3  314.09   55.09
   8   0   3  197.26   37.28
  -8   0  -3  172.37   35.29
   8   0   3  214.39   30.34
  -8   0  -3  263.28   39.37
   8   0   3  219.86   40.82
  10   0   3  265.88   44.24
 -10   0  -3  238.62   41.21
 -10   0  -3  308.68   46.64
  10   0   3  228.23   44.49
  10   0   3  345.05   48.89
 -10   0  -3  272.39   55.65
  10   0   3  212.36   33.68
 -12   0  -3   15.49    8.33
 -12   0  -3   33.90   22.75
  12   0   3   13.16   17.36
 -12   0  -3   22.23   14.27
 -12   0  -3    8.41   15.97
  12   0   3    0.89   15.14
  12   0   3   32.36    8.96
  12   0   3   30.05   20.99
  14   0   3   45.08   24.79
 -14   0  -3   29.60   23.02
 -14   0  -3   49.51   21.96
  14   0   3   50.31   26.37
  14   0   3  101.99   35.91
 -14   0  -3   51.80   29.56
 -14   0  -3   49.25   13.36
  16   0   3    9.52   21.53
  16   0   3   28.50   25.33
  16   0   3   -8.66   20.09
 -16   0  -3    2.41   15.81
 -16   0  -3   22.17   23.59
 -16   0  -3    9.50    8.37
 -16   0  -3    3.60   22.10
 -18   0  -3   -7.90   18.13
  18   0   3   38.13   32.67
  18   0   3    1.64   26.84
  18   0   3   22.37   27.37
 -18   0  -3   24.71   10.92
 -18   0  -3   13.25   25.12
 -18   0  -3   27.89   21.55
  20   0   3   -1.12   26.87
 -20   0  -3   -1.71   21.50
  20   0   3   -1.39   22.77
 -20   0  -3   -8.08   20.00
 -20   0  -3   11.80    9.68
 -20   0  -3    7.89   20.56
  22   0   3   -6.70   26.52
 -22   0  -3   -2.38    8.77
  22   0   3   17.40   28.07
 -22   0  -3  -18.90   19.91
 -24   0  -3    4.47   10.03
  24   0   3   -6.26   27.43
 -24   0  -3    2.43   26.57
  24   0   3    4.29   29.38
  26   0   3    5.97   33.16
 -26   0  -3   -8.21   24.74
 -26   0  -3   -7.66    8.31
  26   0   3   -3.29   27.43
  28   0   3   11.16   34.69
  28   0   3  -42.24   27.50
 -28   0  -3   -0.23   30.52
 -29  -1   3    9.98   24.24
  29  -1  -3   21.76   42.24
  29  -1  -3   26.56   41.51
 -29   1   3   29.97   16.11
  29   1  -3   19.86   47.75
 -29   1   3   52.33   30.18
  29   1  -3   31.91   43.91
  27  -1  -3  109.58   54.84
  27  -1  -3   92.08   53.73
 -27  -1   3   48.16   27.69
  27   1  -3   62.99   44.79
 -27   1   3   30.75   28.15
  27   1  -3   48.42   43.25
  25  -1  -3   59.80   47.71
 -25  -1   3   57.33   28.65
  25  -1  -3  145.90   57.45
  25   1  -3  122.28   54.30
 -25   1   3   67.56   30.92
  25   1  -3  107.28   47.36
 -23  -1   3  136.88   40.77
  23  -1  -3  204.74   61.00
  23  -1  -3  139.30   57.46
 -23   1   3  196.80   45.22
  23   1  -3  119.85   52.52
  23   1  -3  255.93   64.96
 -21  -1   3  173.88   51.11
  21  -1  -3  197.99   57.05
  21  -1  -3  166.90   61.73
 -21  -1   3  133.10   38.79
  21   1  -3  233.51   49.30
 -21   1   3  206.98   46.24
  21   1  -3  208.34   57.57
 -21   1   3  159.40   47.76
  21   1  -3  205.37   63.39
  19  -1  -3  335.51   51.93
 -19  -1   3  244.43   51.94
 -19  -1   3  206.62   57.41
  19  -1  -3  453.84   81.30
 -19  -1   3  217.43   59.94
  19  -1  -3  234.39   69.29
  19   1  -3  276.22   54.06
  19   1  -3  333.93   78.41
 -19   1   3  253.40   62.81
 -19   1   3  288.36   75.03
  19   1  -3  326.28   69.56
 -19   1   3  240.23   48.60
  17  -1  -3 1022.16  130.26
 -17  -1   3  612.79  120.97
  17  -1  -3  874.03  115.04
  17  -1  -3  809.47  131.11
 -17  -1   3  799.66  113.42
  17   1  -3  779.05  126.24
 -17   1   3  653.01  120.82
  17   1  -3  925.44  125.66
  17   1  -3  763.33  113.35
 -17   1   3  896.15  114.61
  15  -1  -3  760.47  107.54
 -15  -1   3  523.82   97.09
 -15  -1   3  475.55   93.98
 -15  -1   3  776.14   91.06
  15  -1  -3  785.14  105.37
  15  -1  -3  648.21   89.59
  15   1  -3  642.94  101.70
  15   1  -3  768.14  101.66
  15   1  -3  711.51   89.98
 -15   1   3  465.12   94.03
 -15   1   3  447.84   95.65
 -15   1   3  632.69   88.83
 -13  -1   3  747.45  108.03
 -13  -1   3  688.88  104.54
  13  -1  -3  667.23   96.83
  13  -1  -3  766.41  113.08
  13   1  -3  864.53   98.43
 -13   1   3  673.27   96.71
  13   1  -3  927.75  112.54
 -13   1   3  540.22  102.85
 -13   1   3  590.24  105.55
  11  -1  -3 1093.86  128.61
 -11  -1   3  728.99  116.78
 -11  -1   3  712.37  117.58
  11   1  -3  839.74  110.44
  11   1  -3 1020.98  123.89
 -11   1   3  810.40  120.78
 -11   1   3  738.82  118.31
  -9  -1   3 1453.47  168.03
   9  -1  -3 1400.21  168.80
  -9  -1   3 1106.11  173.99
   9  -1  -3 1364.03  180.38
  -9   1   3 1122.97  175.85
  -9   1   3 1092.10  175.44
   9   1  -3 1420.51  177.83
   9   1  -3 1345.43  168.05
  -7  -1   3 2268.43  280.18
   7  -1  -3 1989.58  271.21
  -7  -1   3 2255.75  279.09
   7  -1  -3 2344.47  282.89
  -7   1   3 2064.22  270.81
  -7   1   3 1910.17  279.89
   5  -1  -3 1322.11  151.16
  -5  -1   3 1027.18  155.62
  -5  -1   3 1032.32  157.58
  -5  -1   3 1305.00  150.22
   5  -1  -3 1205.93  160.09
   5  -1  -3 1307.17  162.32
  -5   1   3 1060.85  157.59
   5   1  -3 1115.00  155.95
   5   1  -3 1302.76  158.61
   5   1  -3 1105.89  149.73
  -5   1   3  928.76  157.86
  -3  -1   3  771.35   90.26
   3  -1  -3  670.22   90.24
  -3  -1   3  555.83   97.01
   3  -1  -3  653.29   98.06
   3  -1  -3  669.00  100.49
  -3  -1   3  702.57   96.44
   3   1  -3  763.64   98.22
   3   1  -3  670.00   89.59
  -3   1   3  720.16   98.14
  -3   1   3  523.79   97.76
   3   1  -3  773.99   96.49
   1  -1  -3 1933.27  274.19
  -1  -1   3 2101.13  269.59
   1   1  -3 2262.08  269.27
  -1   1   3 2329.89  272.37
   1   1  -3 1777.25  269.97
  -1  -1  -3  616.70  102.17
  -1  -1  -3  790.18   97.58
  -1  -1  -3  651.29   96.07
   1   1   3  765.16   96.78
   1   1   3  790.87  104.10
  -3  -1  -3  596.82   85.41
  -3  -1  -3  596.24   85.38
   3  -1   3  748.73   82.35
   3  -1   3  704.32   85.55
   3  -1   3  784.49   86.63
  -3  -1  -3  461.32   88.67
   3  -1   3  671.84   90.82
  -3   1  -3  616.12   84.42
  -3   1  -3  584.87   84.46
  -3   1  -3  529.63   88.61
   3   1   3  628.40   85.97
   3   1   3  584.47   85.10
   3   1   3  597.47   90.44
  -5  -1  -3 1893.02  287.79
  -5  -1  -3 2284.18  285.05
   5  -1   3 2270.31  288.38
   5  -1   3 2375.78  280.32
   5  -1   3 2480.41  285.66
  -5  -1  -3 2129.48  283.78
   5   1   3 2161.15  284.58
  -5   1  -3 2360.09  283.35
   5   1   3 2103.77  287.81
   5   1   3 2219.58  284.58
  -5   1  -3 1952.24  287.10
   7  -1   3 1252.24  185.17
   7  -1   3 1460.80  183.02
   7  -1   3 1434.79  178.24
   7  -1   3 1499.24  185.47
  -7   1  -3 1403.77  183.95
  -7   1  -3 1438.41  182.05
  -7   1  -3 1142.15  185.38
  -7   1  -3 1463.13  178.48
   9  -1   3 1800.30  233.14
  -9  -1  -3 1685.72  229.46
  -9  -1  -3 1630.54  231.33
   9  -1   3 1842.73  233.77
   9  -1   3 1744.21  230.52
   9  -1   3 1876.89  224.76
  -9  -1  -3 1520.53  234.66
   9   1   3 1852.90  223.15
  -9   1  -3 1808.29  224.99
  -9   1  -3 1538.75  233.74
   9   1   3 1975.28  234.90
   9   1   3 1834.95  233.59
  -9   1  -3 1829.19  229.58
   9   1   3 1665.24  230.93
  -9   1  -3 1789.52  232.15
 -11  -1  -3  675.58  119.26
  11  -1   3  847.00  119.54
  11  -1   3 1082.94  121.36
 -11  -1  -3  724.25  113.54
 -11  -1  -3  646.03  115.11
  11  -1   3  983.32  118.04
 -11   1  -3  728.34  116.66
  11   1   3  806.17  116.72
 -11   1  -3  889.05  115.00
  11   1   3  900.31  119.27
  11   1   3  780.98  118.55
 -11   1  -3  762.84  119.86
 -11   1  -3  866.85  108.76
  11   1   3  920.30  106.62
  13  -1   3  451.79   80.34
  13  -1   3  525.97   67.71
  13  -1   3  489.60   77.28
 -13  -1  -3  618.11   81.63
 -13  -1  -3  694.08   87.71
  13  -1   3  600.14   80.82
 -13   1  -3  415.77   77.12
 -13   1  -3  454.00   74.50
 -13   1  -3  359.29   78.16
 -13   1  -3  484.76   67.61
  13   1   3  617.67   83.29
  15  -1   3  548.10   87.29
 -15  -1  -3  640.43   94.16
 -15  -1  -3  573.25   85.48
  15  -1   3  575.15   91.51
 -15  -1  -3  598.45   89.26
  15  -1   3  743.65   92.68
 -15   1  -3  507.25   75.56
  15   1   3  657.49   93.68
 -15   1  -3  518.97   87.54
  15   1   3  636.55   89.78
 -15   1  -3  446.15   87.86
 -15   1  -3  541.47   84.70
 -17  -1  -3  617.53   92.89
 -17  -1  -3  571.88   95.93
  17  -1   3  673.85   97.08
  17  -1   3  697.51  102.21
 -17  -1  -3  481.34   95.93
 -17   1  -3  546.29   97.80
 -17   1  -3  551.35   96.99
  17   1   3  656.80  100.54
 -17   1  -3  612.58   93.74
  17   1   3  672.30   97.82
 -17   1  -3  637.64   82.16
  19  -1   3  220.81   49.71
 -19  -1  -3  169.28   43.00
  19  -1   3  187.60   54.28
 -19  -1  -3  200.13   54.73
 -19  -1  -3  116.57   47.32
  19   1   3  231.01   59.99
 -19   1  -3  119.03   42.58
 -19   1  -3  156.84   29.41
  19   1   3  175.84   47.15
 -19   1  -3  273.98   46.59
  19   1   3  349.95   66.35
 -19   1  -3  257.99   55.69
 -21  -1  -3  229.48   52.94
 -21  -1  -3   93.32   44.16
  21  -1   3  133.70   49.45
  21  -1   3  153.53   45.27
  21   1   3  215.32   59.89
 -21   1  -3  160.55   48.87
  21   1   3  121.73   44.54
 -21   1  -3  145.28   26.50
 -21   1  -3  262.36   58.54
 -23  -1  -3   37.62   35.63
  23  -1   3  143.59   45.71
  23  -1   3  158.08   51.79
  23   1   3   85.94   39.48
  23   1   3  122.46   46.37
 -23   1  -3  103.79   38.96
 -23   1  -3  119.97   22.77
  25  -1   3   95.95   46.08
  25  -1   3   73.59   40.87
 -25  -1  -3   38.12   34.06
 -25   1  -3   24.21   32.03
  25   1   3   45.72   34.21
  25   1   3   39.33   36.41
 -25   1  -3   49.17   14.72
  27  -1   3   93.28   45.75
  27  -1   3   40.30   37.43
 -27  -1  -3   11.39   26.69
 -27   1  -3   39.14   14.52
  27   1   3   70.18   42.96
 -27   1  -3   54.53   34.13
  27   1   3   39.46   34.11
  29  -1   3   94.15   41.06
  29  -1   3    1.44   34.59
 -29  -1  -3    3.08   28.70
  29   1   3   22.75   41.03
 -29   1  -3   -8.96   29.73
  29   1   3   90.87   43.03
  28  -2  -3    7.58   40.51
  28  -2  -3    5.01   39.30
 -28  -2   3   -4.10   20.59
  28   2  -3   22.79   45.66
 -28   2   3    1.38   21.72
  28   2  -3   -5.25   33.35
 -28   2   3    7.06   13.72
  26  -2  -3   53.03   42.64
 -26  -2   3   20.99   26.04
  26  -2  -3  -22.66   31.11
 -26   2   3   17.64   23.27
  26   2  -3    6.40   37.26
  26   2  -3   31.71   38.73
 -24  -2   3   16.57   25.49
  24  -2  -3   78.40   47.94
  24  -2  -3    1.21   35.46
 -24   2   3   -0.47   20.56
  24   2  -3   14.77   33.73
  24   2  -3   35.04   40.48
 -22  -2   3    6.07   24.98
  22  -2  -3    1.94   32.17
  22  -2  -3   -6.56   31.74
 -22  -2   3    7.10   22.16
  22   2  -3   21.50   34.92
 -22   2   3    6.21   19.98
  22   2  -3   27.76   34.86
 -20  -2   3   42.21   23.32
 -20  -2   3   88.40   34.60
  20  -2  -3   52.69   42.33
  20  -2  -3   22.32   30.91
 -20   2   3   47.50   38.74
  20   2  -3   21.95   20.75
 -20   2   3   30.37   24.07
  20   2  -3   80.99   35.39
  20   2  -3   70.09   39.51
 -20   2   3   39.03   31.31
 -18  -2   3   61.81   26.39
 -18  -2   3  142.14   42.55
  18  -2  -3  175.39   59.75
 -18  -2   3  172.26   48.13
  18  -2  -3  115.53   33.58
  18  -2  -3  212.49   57.29
 -18   2   3   94.65   30.50
 -18   2   3  109.09   38.24
  18   2  -3  103.37   29.61
  18   2  -3  103.66   38.82
 -18   2   3   47.28   38.20
  18   2  -3  116.61   43.77
 -16  -2   3   73.39   30.23
  16  -2  -3  131.09   44.91
  16  -2  -3   85.89   41.79
  16  -2  -3   39.21   21.26
 -16  -2   3  123.81   39.59
 -16  -2   3   55.97   22.10
 -16   2   3   62.03   23.72
  16   2  -3   77.20   34.13
 -16   2   3  137.89   42.83
 -16   2   3   59.19   29.01
  16   2  -3   58.29   22.67
  16   2  -3   85.37   35.75
 -14  -2   3   30.87   20.03
  14  -2  -3   24.54   15.54
 -14  -2   3    8.60   19.85
 -14  -2   3   23.29   17.03
  14  -2  -3   34.81   27.19
  14  -2  -3   24.43   28.50
 -14   2   3    9.07   22.51
  14   2  -3   15.33   22.18
  14   2  -3   21.18   13.90
 -14   2   3   18.73   15.86
  14   2  -3   74.20   30.05
 -14   2   3   22.28   21.73
  12  -2  -3  111.61   24.58
 -12  -2   3   57.25   28.61
  12  -2  -3  103.60   36.26
 -12  -2   3   90.07   29.13
  12  -2  -3   82.30   36.85
 -12   2   3  115.57   37.16
 -12   2   3   77.94   31.93
  12   2  -3  186.71   41.19
  12   2  -3  157.59   38.69
  12   2  -3   68.97   20.01
 -12   2   3   57.50   20.69
 -10  -2   3   42.44   14.79
  10  -2  -3   47.27   15.82
  10  -2  -3   69.86   29.90
 -10  -2   3   39.13   20.31
  10  -2  -3   94.09   37.08
 -10  -2   3   84.53   26.78
 -10   2   3   31.49   21.01
  10   2  -3   72.17   26.39
  10   2  -3   63.31   25.42
 -10   2   3   54.83   26.85
  10   2  -3   40.19   14.39
  -8  -2   3   36.32   17.96
   8  -2  -3   29.22   11.61
   8  -2  -3   28.57   21.19
  -8  -2   3   16.96    9.48
  -8  -2   3   17.12   14.67
   8  -2  -3   11.75   20.68
  -8   2   3    6.07   18.03
  -8   2   3   18.97   17.75
  -8   2   3   10.79    9.52
   8   2  -3   17.04   16.19
   8   2  -3   13.90    9.07
   8   2  -3   25.10   18.03
  -6  -2   3  395.56   54.53
   6  -2  -3  303.24   55.79
   6  -2  -3  288.01   44.39
  -6  -2   3  280.68   42.90
  -6  -2   3  400.04   52.09
  -6   2   3  267.18   42.99
  -6   2   3  277.58   52.82
   6   2  -3  296.00   43.10
  -6   2   3  362.13   57.44
  -4  -2   3   53.73   18.95
   4  -2  -3   64.99   27.15
  -4  -2   3   18.64    9.75
  -4  -2   3   40.72   19.08
   4  -2  -3   44.29   13.23
   4  -2  -3   46.00   23.38
   4   2  -3   33.83   16.25
  -4   2   3   57.91   25.07
  -4   2   3   38.43   11.84
   4   2  -3   37.50   11.49
  -4   2   3   40.46   21.73
   4   2  -3   48.75   17.61
   2  -2  -3  237.12   49.67
  -2  -2   3  184.80   42.80
  -2  -2   3  279.24   42.86
   2  -2  -3  261.41   38.08
   2  -2  -3  372.62   65.20
  -2  -2   3  246.77   37.02
   2   2  -3  303.94   40.89
   2   2  -3  314.32   44.39
  -2   2   3  239.97   37.06
  -2   2   3  355.01   59.62
   2   2  -3  243.08   36.04
  -2   2   3  219.39   53.78
   0  -2  -3  294.53   62.67
   0  -2   3  315.95   48.13
   0  -2  -3  280.75   44.25
   0  -2   3  330.14   42.85
   0  -2  -3  274.67   51.37
   0  -2   3  263.01   40.70
   0  -2  -3  327.05   43.97
   0  -2   3  216.84   52.79
   0   2   3  195.06   55.08
   0   2  -3  371.62   45.84
   0   2  -3  288.59   42.08
   0   2   3  280.91   49.90
   0   2  -3  334.85   41.75
   0   2   3  356.09   43.96
   0   2  -3  262.97   47.86
  -2  -2  -3  133.23   23.65
   2  -2   3  130.65   22.70
  -2  -2  -3   77.29   29.97
  -2  -2  -3  141.43   37.10
   2  -2   3   95.66   19.91
   2  -2   3  183.55   33.98
  -2  -2  -3  129.68   23.97
   2  -2   3  147.54   23.07
  -2   2  -3   82.20   27.98
   2   2   3  173.75   37.15
  -2   2  -3  109.95   21.00
  -2   2  -3  173.81   30.45
   2   2   3  145.28   25.40
   2   2   3  125.22   22.91
  -2   2  -3  159.25   22.39
  -4  -2  -3   23.69   12.24
   4  -2   3   20.25   16.93
  -4  -2  -3    3.13   11.69
  -4  -2  -3   28.47   14.13
   4  -2   3   23.11   10.95
   4  -2   3   19.33   12.14
   4  -2   3   30.74   10.20
  -4  -2  -3    9.17   15.48
   4   2   3   36.39   14.63
   4   2   3   15.18   11.82
   4   2   3   13.01   14.81
  -4   2  -3   10.81   13.95
  -4   2  -3   24.47   10.01
  -4   2  -3   17.52    9.56
  -4   2  -3   31.92   13.07
   6  -2   3   48.74   13.26
  -6  -2  -3   34.70   21.01
   6  -2   3   74.87   21.42
   6  -2   3   43.06   20.03
  -6  -2  -3   78.92   22.62
   6  -2   3   44.77   15.68
  -6  -2  -3   49.48   17.88
   6   2   3   51.27   18.97
  -6   2  -3   51.48   14.33
  -6   2  -3   53.64   15.86
  -6   2  -3   58.25   22.40
  -6   2  -3   62.54   18.95
   6   2   3   67.12   20.80
   6   2   3   57.68   21.55
   8  -2   3  269.32   42.06
  -8  -2  -3  251.84   40.17
   8  -2   3  181.85   31.48
  -8  -2  -3  258.16   52.45
  -8  -2  -3  186.97   36.40
   8  -2   3  217.39   45.58
   8  -2   3  209.72   37.06
  -8   2  -3  178.75   32.40
   8   2   3  243.26   39.64
   8   2   3  286.87   41.40
  -8   2  -3  255.46   49.35
  -8   2  -3  199.11   35.92
   8   2   3  248.82   42.24
  -8   2  -3  258.07   39.35
  10  -2   3  183.79   38.05
 -10  -2  -3  108.99   27.92
  10  -2   3  138.16   33.28
  10  -2   3  120.60   27.88
 -10  -2  -3  224.76   41.95
  10  -2   3  113.80   20.54
 -10  -2  -3  101.02   32.80
 -10   2  -3  210.86   39.28
 -10   2  -3  137.86   23.35
  10   2   3  124.00   31.09
  10   2   3  167.84   37.97
  10   2   3   72.33   13.85
  10   2   3  128.30   32.98
 -10   2  -3   81.20   29.62
 -10   2  -3  124.43   26.76
 -12  -2  -3    3.86   12.99
 -12  -2  -3   28.15   22.48
 -12  -2  -3   18.53   16.59
  12  -2   3   13.54    9.25
  12  -2   3    3.07   15.54
  12  -2   3   14.38   19.30
  12  -2   3   18.23   20.27
  12   2   3   20.37   19.41
 -12   2  -3   15.68   20.32
 -12   2  -3   10.27   16.92
 -12   2  -3   17.34   11.78
  12   2   3   20.10   19.23
 -12   2  -3   21.89   15.65
  12   2   3   10.52   17.60
  14  -2   3   20.21   11.66
 -14  -2  -3   27.56   18.09
 -14  -2  -3   45.51   27.19
  14  -2   3    7.36   20.18
  14  -2   3   36.98   25.15
 -14  -2  -3   55.99   25.32
  14  -2   3   26.29   24.65
 -14   2  -3   72.01   29.47
 -14   2  -3   33.95   19.98
 -14   2  -3   26.40   13.61
 -14   2  -3   34.83   26.04
  14   2   3   62.77   28.08
  14   2   3   42.36   24.37
  14   2   3   17.13   24.18
  16  -2   3  148.19   46.35
 -16  -2  -3  113.18   38.36
  16  -2   3   96.21   37.01
  16  -2   3  143.63   39.46
 -16  -2  -3  107.98   33.50
 -16  -2  -3  127.80   43.55
 -16   2  -3   84.00   36.93
  16   2   3  133.21   40.76
  16   2   3  128.57   41.97
  16   2   3  162.20   41.48
 -16   2  -3  103.74   34.51
 -16   2  -3   95.51   24.38
 -16   2  -3  198.12   49.99
 -18  -2  -3   26.75   29.98
  18  -2   3   79.20   37.89
  18  -2   3   39.98   29.69
  18  -2   3  100.78   38.21
 -18  -2  -3  112.63   36.39
 -18  -2  -3   73.89   28.24
  18   2   3  118.92   42.47
  18   2   3   72.24   35.06
 -18   2  -3  115.86   34.91
 -18   2  -3   57.63   18.43
 -18   2  -3   45.22   31.08
 -18   2  -3  153.72   45.21
  18   2   3  118.67   39.65
 -20  -2  -3   62.27   28.51
 -20  -2  -3   21.38   28.74
  20  -2   3   31.80   29.30
  20  -2   3   13.18   34.26
  20  -2   3   61.27   37.17
  20   2   3   28.45   30.04
  20   2   3   43.84   29.66
  20   2   3   22.15   31.97
 -20   2  -3   34.01   32.86
 -20   2  -3  126.06   43.43
 -20   2  -3   44.77   16.66
 -22  -2  -3   40.72   31.96
  22  -2   3   93.07   44.63
  22  -2   3   -0.57   29.06
 -22   2  -3   60.62   18.60
  22   2   3   64.05   39.13
 -22   2  -3   66.64   31.85
  22   2   3   54.43   33.65
 -22   2  -3  108.83   54.75
  24  -2   3   -6.41   32.43
  24  -2   3    2.58   30.30
 -24  -2  -3   39.41   31.28
  24   2   3   18.90   31.09
  24   2   3    0.75   30.89
 -24   2  -3   25.32   31.67
 -24   2  -3   23.60   14.42
  26  -2   3  -11.35   30.80
  26  -2   3   13.83   36.91
 -26  -2  -3    8.26   26.50
 -26   2  -3   -0.80   11.48
 -26   2  -3  -10.66   27.50
  26   2   3   11.48   34.56
  26   2   3   10.50   29.52
 -28  -2  -3   -4.04   24.10
  28  -2   3    5.95   36.53
  28  -2   3   60.72   39.72
 -28   2  -3  -31.04   22.88
  28   2   3   -7.43   32.79
 -28   2  -3   10.82   12.72
  28   2   3   20.80   33.31
  27  -3  -3  103.42   52.97
 -27  -3   3   27.23   26.23
  27  -3  -3  102.43   55.88
  27   3  -3   26.79   37.89
 -27   3   3   85.81   32.26
  27   3  -3   38.82   42.92
 -27   3   3   28.43   18.06
  25  -3  -3  137.78   60.90
  25  -3  -3   98.24   49.77
 -25  -3   3   46.89   29.67
  25   3  -3  100.67   48.41
 -25   3   3   99.93   37.10
  25   3  -3  128.88   47.11
 -25   3   3   98.41   26.20
  23  -3  -3  195.37   69.24
 -23  -3   3  146.28   41.88
 -23  -3   3  164.13   51.77
  23  -3  -3  246.04   65.22
  23   3  -3  200.31   56.91
  23   3  -3  143.54   56.61
 -23   3   3  216.71   49.89
  21  -3  -3  279.44   70.03
 -21  -3   3  203.26   47.63
  21  -3  -3  234.61   75.71
 -21  -3   3  186.07   52.80
  21   3  -3  321.84   65.40
  21   3  -3  233.94   47.84
 -21   3   3  224.12   51.19
  21   3  -3  270.24   66.39
  19  -3  -3  471.76  102.74
  19  -3  -3  544.84   96.00
 -19  -3   3  418.66   86.26
 -19  -3   3  287.84   56.66
  19  -3  -3  325.48   60.42
 -19  -3   3  314.33   65.78
  19   3  -3  334.47   56.01
 -19   3   3  278.26   56.19
 -19   3   3  432.86   99.22
  19   3  -3  353.07   69.51
  19   3  -3  370.95   77.08
 -19   3   3  235.79   73.58
  17  -3  -3  724.52   98.71
 -17  -3   3  469.55   85.78
  17  -3  -3  500.41   77.28
 -17  -3   3  435.63   82.77
 -17  -3   3  522.48   76.84
  17  -3  -3  582.56   99.76
  17   3  -3  463.37   86.07
 -17   3   3  347.88   83.93
  17   3  -3  614.77   88.07
 -17   3   3  491.44  106.96
  17   3  -3  506.95   75.31
 -17   3   3  552.25   77.44
 -15  -3   3  409.25   77.63
 -15  -3   3  606.27   71.40
  15  -3  -3  394.98   94.99
  15  -3  -3  444.53   83.62
  15  -3  -3  394.39   68.44
 -15  -3   3  412.49   75.41
  15   3  -3  480.87   79.56
 -15   3   3  450.85   68.58
  15   3  -3  515.16   77.31
 -15   3   3  467.42   98.29
  15   3  -3  526.02   68.41
 -15   3   3  344.81   84.88
  13  -3  -3  749.56  102.42
  13  -3  -3  537.76  100.15
 -13  -3   3  437.47   88.47
  13  -3  -3  592.35   84.69
 -13  -3   3  714.18   85.48
 -13  -3   3  493.83   90.53
  13   3  -3  712.69   92.57
  13   3  -3  535.00   89.95
 -13   3   3  670.35   84.79
  13   3  -3  553.39   82.29
 -11  -3   3  824.41  125.76
  11  -3  -3 1030.84  120.75
  11  -3  -3 1042.97  137.94
 -11  -3   3  847.30  125.85
 -11   3   3  759.22  128.41
 -11   3   3  736.39  127.97
  11   3  -3 1012.98  125.68
  11   3  -3  927.71  125.26
  11   3  -3  856.56  117.80
  -9  -3   3  518.10   83.39
   9  -3  -3  694.12   79.39
   9  -3  -3  749.45   97.59
  -9  -3   3  522.86   76.23
  -9  -3   3  504.45   83.04
   9   3  -3  659.73   84.06
   9   3  -3  555.98   81.74
   9   3  -3  499.68   75.72
  -9   3   3  530.24   88.49
  -9   3   3  569.25   89.45
   7  -3  -3 2119.43  270.16
  -7  -3   3 1969.55  262.90
  -7  -3   3 1780.44  260.06
   7   3  -3 2276.92  259.32
  -7   3   3 1820.13  264.61
   7   3  -3 2033.99  255.01
  -5  -3   3 2102.68  282.48
   5  -3  -3 2455.16  294.82
  -5  -3   3 2118.39  285.79
   5  -3  -3 2166.84  291.16
  -5   3   3 1821.81  285.59
   5   3  -3 2442.19  279.57
   3  -3  -3 2077.70  260.74
  -3  -3   3 1791.42  250.29
  -3  -3   3 1902.89  247.16
   3  -3  -3 1852.38  260.85
  -3  -3   3 1906.48  247.10
  -3   3   3 1848.66  255.49
   3   3  -3 2224.78  252.10
  -1  -3   3 2046.17  278.39
  -1   3   3 2251.92  285.21
  -1  -3  -3 2183.35  309.18
  -1   3  -3 2395.11  309.99
   1   3   3 2519.11  308.63
  -3  -3  -3 1448.28  221.99
  -3  -3  -3 1561.11  217.53
   3  -3   3 1724.95  220.17
  -3  -3  -3 1744.39  218.63
   3   3   3 1757.98  217.02
   3   3   3 1834.18  222.31
   5  -3   3 2561.46  333.33
   5  -3   3 2655.54  332.31
   5  -3   3 2494.89  337.64
  -5  -3  -3 2905.54  337.47
  -5  -3  -3 2558.73  341.13
  -5   3  -3 2792.12  333.23
  -5   3  -3 2355.78  333.05
   7  -3   3 2351.92  279.37
  -7  -3  -3 1898.85  282.60
   7  -3   3 2230.45  276.51
  -7  -3  -3 2004.27  278.70
   7  -3   3 2024.31  279.14
   7  -3   3 2347.11  274.32
   7   3   3 2312.77  281.36
  -7   3  -3 2025.45  275.86
  -7   3  -3 2392.90  275.23
   7   3   3 2038.04  277.59
  -7   3  -3 1937.06  277.57
  -9  -3  -3  296.25   55.14
  -9  -3  -3  371.35   62.04
  -9  -3  -3  308.77   53.77
   9   3   3  356.05   56.08
  -9   3  -3  399.09   58.41
  -9   3  -3  386.22   55.56
   9   3   3  311.87   55.37
   9   3   3  448.51   60.24
  11  -3   3  983.74  113.02
 -11  -3  -3  858.90  117.83
  11  -3   3  840.83  120.70
  11  -3   3  900.39  118.59
 -11  -3  -3  797.40  124.35
 -11  -3  -3  785.31  119.54
  11  -3   3 1070.06  122.53
 -11   3  -3  664.56  118.76
 -11   3  -3  730.14  117.56
  11   3   3  808.31  119.59
 -11   3  -3  885.79  117.25
  11   3   3  643.49  117.06
 -11   3  -3  905.92  113.48
  11   3   3 1043.10  123.38
  13  -3   3  628.33   81.47
 -13  -3  -3  613.72   91.76
  13  -3   3  721.42   93.21
  13  -3   3  593.56   91.85
 -13  -3  -3  654.47   88.81
 -13  -3  -3  657.05   97.12
  13  -3   3  587.62   89.30
  13   3   3  662.38   92.33
 -13   3  -3  515.79   81.28
 -13   3  -3  531.71   88.62
 -13   3  -3  596.95   87.50
  13   3   3  657.26   92.90
 -13   3  -3  440.70   88.76
 -15  -3  -3  523.50   86.47
  15  -3   3  661.47   86.23
 -15  -3  -3  572.07   84.35
  15  -3   3  496.99   70.54
  15  -3   3  531.79   81.57
 -15  -3  -3  597.78   80.67
  15  -3   3  444.45   82.24
 -15   3  -3  441.72   70.60
  15   3   3  538.71   84.55
 -15   3  -3  480.23   82.26
 -15   3  -3  368.15   80.10
 -15   3  -3  544.30   80.46
 -17  -3  -3  388.72   78.29
  17  -3   3  566.56   78.68
 -17  -3  -3  424.62   72.17
  17  -3   3  462.73   79.45
 -17  -3  -3  490.52   77.50
 -17   3  -3  399.04   62.34
  17   3   3  397.51   77.25
 -17   3  -3  468.48   78.62
 -17   3  -3  463.03   75.45
  17   3   3  477.65   77.71
 -17   3  -3  316.09   76.41
 -19  -3  -3  285.18   67.73
  19  -3   3  289.72   61.08
  19  -3   3  238.15   62.67
 -19  -3  -3  294.77   54.08
 -19   3  -3  191.15   56.55
  19   3   3  321.21   64.83
  19   3   3  400.94   78.12
 -19   3  -3  232.93   41.98
 -19   3  -3  409.12   78.77
 -21  -3  -3  292.31   51.24
  21  -3   3  229.23   55.24
 -21  -3  -3  217.29   59.34
  21  -3   3  176.41   57.75
 -21   3  -3  141.67   35.27
  21   3   3  279.53   60.89
 -21   3  -3  258.10   67.96
  21   3   3  301.00   71.30
 -21   3  -3  195.36   55.93
 -23  -3  -3   64.60   36.05
  23  -3   3   85.60   46.95
  23  -3   3  108.06   40.95
 -23   3  -3  115.04   26.64
  23   3   3  159.48   53.91
 -23   3  -3   93.63   40.42
 -23   3  -3  177.41   73.33
  23   3   3  135.20   44.23
 -25  -3  -3   51.88   34.69
  25  -3   3   67.78   38.42
  25  -3   3   95.86   45.85
  25   3   3  128.39   51.10
  25   3   3  112.47   42.45
 -25   3  -3   94.93   39.61
 -25   3  -3   35.43   19.05
  27  -3   3   19.79   41.22
 -27  -3  -3   63.22   33.79
  27  -3   3   38.99   40.31
  27   3   3   73.00   40.45
  27   3   3  126.36   54.31
 -27   3  -3   -3.47   31.03
  26  -4  -3   32.64   44.94
  26  -4  -3   -1.60   39.54
 -26  -4   3   47.36   28.57
 -26   4   3   -0.01   22.26
 -26   4   3   21.21   19.05
  26   4  -3    5.04   33.67
  26   4  -3   62.03   41.22
  24  -4  -3    4.60   43.52
 -24  -4   3   73.55   35.45
 -24  -4   3   34.42   28.84
  24  -4  -3   13.13   41.54
  24   4  -3   13.66   31.36
 -24   4   3   11.42   17.70
  24   4  -3   18.66   34.51
 -24   4   3   20.07   24.25
  22  -4  -3   13.04   39.95
 -22  -4   3   21.64   30.24
  22  -4  -3  -11.11   30.04
 -22  -4   3   28.01   24.16
  22   4  -3   14.21   29.82
 -22   4   3   40.06   25.09
  22   4  -3   26.01   21.81
  22   4  -3  -18.81   27.33
 -22   4   3   -7.29   13.22
  20  -4  -3   38.01   42.01
  20  -4  -3   11.63   31.50
 -20  -4   3   26.69   22.65
 -20  -4   3    0.20   23.54
 -20   4   3   27.41   36.71
 -20   4   3   23.10   22.49
  20   4  -3   11.62   27.05
  20   4  -3   17.97   29.45
  20   4  -3   31.76   20.42
  18  -4  -3   40.94   23.03
  18  -4  -3   79.22   46.97
 -18  -4   3   95.48   38.16
 -18  -4   3   56.49   30.11
  18  -4  -3   71.86   39.89
 -18  -4   3   56.42   25.06
  18   4  -3   21.89   28.06
 -18   4   3   27.97   36.87
  18   4  -3   69.35   33.33
 -18   4   3   45.09   24.41
  18   4  -3   46.91   19.96
 -16  -4   3   37.72   20.47
 -16  -4   3   41.96   26.64
  16  -4  -3   62.97   36.58
  16  -4  -3   36.94   36.66
 -16  -4   3   64.05   27.60
  16  -4  -3   50.01   24.52
  16   4  -3   57.89   30.07
 -16   4   3   43.44   21.59
  16   4  -3   55.57   29.07
 -16   4   3   63.53   34.00
  16   4  -3   22.99   17.26
 -16   4   3   44.18   31.35
  14  -4  -3   74.92   40.41
  14  -4  -3   77.75   38.20
  14  -4  -3   43.28   19.42
 -14  -4   3   65.29   26.95
 -14  -4   3   17.29   22.82
 -14  -4   3   44.78   20.15
 -14   4   3   39.38   20.00
  14   4  -3   54.28   25.06
 -14   4   3   55.83   27.52
  14   4  -3   33.48   15.96
  14   4  -3   32.54   23.45
 -14   4   3   97.42   37.94
  12  -4  -3   15.76   28.73
 -12  -4   3   14.16   18.33
  12  -4  -3   33.31   27.77
 -12  -4   3    7.17   17.55
  12  -4  -3   25.19   14.97
 -12   4   3   10.96   12.75
  12   4  -3    5.04   15.38
 -12   4   3    3.19   17.40
 -12   4   3   -1.13   22.35
  12   4  -3    6.25   18.00
  12   4  -3   19.43   11.03
 -10  -4   3   46.12   23.30
  10  -4  -3   45.09   29.41
 -10  -4   3   22.19   12.80
  10  -4  -3   42.33   30.54
 -10  -4   3   29.35   18.32
  10  -4  -3   20.29   13.93
  10   4  -3   39.68   19.68
  10   4  -3   25.88   10.74
  10   4  -3   41.15   17.09
 -10   4   3   19.10   13.40
 -10   4   3   24.88   26.14
 -10   4   3   44.06   23.19
  -8  -4   3  212.57   39.98
   8  -4  -3  179.18   51.28
  -8  -4   3  155.33   26.96
  -8  -4   3  132.82   25.44
  -8  -4   3  173.25   36.03
   8  -4  -3  144.03   28.78
   8  -4  -3  308.18   61.34
  -8   4   3  111.45   39.59
  -8   4   3  136.91   27.82
   8   4  -3  133.20   24.44
   8   4  -3  114.46   21.60
  -8   4   3  120.13   38.16
  -6  -4   3   69.01   23.54
   6  -4  -3   83.77   34.03
  -6  -4   3   49.70   14.98
   6  -4  -3   75.33   32.98
  -6  -4   3   41.94   13.20
   6  -4  -3   66.56   17.71
  -6  -4   3   63.33   20.05
   6   4  -3   86.28   21.54
  -6   4   3   26.76   21.23
  -6   4   3   47.56   25.45
  -4  -4   3   60.07   15.29
   4  -4  -3   78.30   34.15
  -4  -4   3   60.46   20.95
   4  -4  -3   66.92   16.97
   4  -4  -3   85.43   33.35
  -4  -4   3   83.52   20.02
  -4  -4   3   50.68   13.08
  -4   4   3   78.31   30.05
  -4   4   3   42.04   13.30
  -4   4   3   35.31   22.19
   2  -4  -3  283.11   57.92
  -2  -4   3  158.53   25.33
  -2  -4   3  182.88   27.78
   2  -4  -3  141.34   26.14
  -2  -4   3  135.73   31.74
  -2  -4   3  179.58   24.26
   2  -4  -3  194.13   47.33
   2   4  -3  129.41   22.82
  -2   4   3   88.66   33.82
  -2   4   3  179.40   40.62
  -2   4   3  151.27   24.17
   0  -4  -3  350.29   47.95
   0  -4   3  370.37   44.53
   0  -4  -3  298.41   67.52
   0  -4   3  283.78   45.51
   0  -4  -3  274.11   48.06
   0  -4  -3  341.77   57.37
   0  -4   3  416.09   48.85
   0   4  -3  256.66   43.14
   0   4   3  313.55   45.37
   0   4   3  317.71   52.59
   0   4  -3  400.33   48.12
  -2  -4  -3  117.33   26.33
  -2  -4  -3  100.97   32.83
   2  -4   3  147.58   26.98
   2  -4   3  130.10   20.34
  -2  -4  -3   85.09   32.97
  -2  -4  -3  119.46   26.99
   2  -4   3   99.44   21.14
   2   4   3  126.84   23.49
  -2   4  -3   96.10   22.67
  -2   4  -3   89.98   17.72
  -2   4  -3   82.13   23.12
   2   4   3  186.70   35.64
   4  -4   3   28.57   11.51
   4  -4   3   19.40   11.43
  -4  -4  -3   32.43   15.23
   4  -4   3   39.34   15.01
   4  -4   3   38.09   17.37
  -4  -4  -3   49.66   18.26
  -4  -4  -3   14.10   16.62
  -4  -4  -3    6.55   14.54
   4   4   3   29.74   16.02
   4   4   3   47.90   15.98
  -4   4  -3   38.17   11.83
   4   4   3   11.12   15.12
  -4   4  -3   28.61   14.77
  -6  -4  -3   45.24   22.98
   6  -4   3   25.75   12.62
   6  -4   3   31.58   17.18
  -6  -4  -3   34.44   17.01
   6  -4   3   34.40   13.15
  -6  -4  -3   35.04   18.71
   6  -4   3   83.95   21.73
  -6   4  -3   39.04   14.13
   6   4   3   59.44   20.64
   6   4   3   49.21   19.77
   6   4   3   26.68   14.83
  -6   4  -3   38.46   16.25
  -8  -4  -3  116.92   29.28
  -8  -4  -3  218.91   42.95
   8  -4   3  182.14   35.35
  -8  -4  -3  131.10   38.35
   8  -4   3  105.81   24.62
   8  -4   3  173.34   35.98
   8  -4   3  179.79   31.55
   8   4   3   90.74   18.34
   8   4   3  227.43   41.36
  -8   4  -3  170.33   28.99
  -8   4  -3  167.94   30.12
   8   4   3  166.86   33.26
  -8   4  -3  137.86   28.52
   8   4   3  137.09   33.46
  -8   4  -3  126.41   23.57
  10  -4   3   29.19   19.75
 -10  -4  -3   37.42   20.95
  10  -4   3   40.90   20.55
 -10  -4  -3   52.15   27.48
 -10  -4  -3   27.75   17.18
  10  -4   3   25.82   12.61
  10  -4   3   10.78   15.57
  10   4   3   21.89   19.78
 -10   4  -3   31.95   18.30
 -10   4  -3   51.02   18.66
 -10   4  -3   36.33   17.91
 -10   4  -3   13.83   15.16
  10   4   3   37.84   20.87
  10   4   3   42.57   20.23
  12  -4   3   13.69   20.14
 -12  -4  -3  -11.79   16.21
  12  -4   3   12.89   10.59
  12  -4   3   -8.75   17.36
 -12  -4  -3    1.87   13.66
  12  -4   3   -1.99   15.95
 -12  -4  -3   27.30   20.75
 -12   4  -3   25.56   20.55
  12   4   3   15.84   18.14
  12   4   3    0.98   18.33
 -12   4  -3    8.80   14.79
 -12   4  -3   10.86   16.77
 -12   4  -3    8.79   16.54
  12   4   3   12.44   17.29
 -14  -4  -3   59.83   25.38
  14  -4   3   28.77   25.38
 -14  -4  -3   43.78   29.44
  14  -4   3   29.19   21.46
  14  -4   3   28.82   25.98
 -14  -4  -3   11.07   17.90
  14   4   3   59.55   27.56
 -14   4  -3   40.64   24.32
  14   4   3   28.71   23.40
 -14   4  -3   52.20   24.46
 -14   4  -3   17.18   22.43
 -14   4  -3   47.28   18.48
  14   4   3    2.94   19.50
  16  -4   3  100.31   36.04
 -16  -4  -3   81.50   36.67
  16  -4   3   80.54   30.61
 -16  -4  -3   69.78   27.03
 -16  -4  -3  129.29   34.78
  16  -4   3   78.08   34.32
 -16   4  -3  179.37   41.27
 -16   4  -3  137.08   36.76
  16   4   3   36.75   29.72
 -16   4  -3   65.51   22.63
  16   4   3   75.32   34.76
 -16   4  -3   65.10   30.31
  16   4   3   97.02   35.33
 -18  -4  -3    9.88   18.42
  18  -4   3   -5.98   23.58
 -18  -4  -3   14.15   26.50
  18  -4   3   48.02   33.62
  18  -4   3   31.49   30.96
  18   4   3   -2.12   24.11
 -18   4  -3   13.26   15.36
  18   4   3   17.66   25.99
 -18   4  -3   44.19   33.57
 -18   4  -3  -11.76   25.79
 -18   4  -3   10.33   24.97
  18   4   3    9.34   26.38
  20  -4   3    6.82   26.51
  20  -4   3   30.56   34.28
 -20  -4  -3    0.00   24.53
 -20  -4  -3   36.29   26.34
 -20   4  -3   11.14   26.50
  20   4   3   32.41   29.86
 -20   4  -3   11.43   14.43
  20   4   3   -0.94   26.68
 -20   4  -3   48.16   40.78
  20   4   3   10.94   27.16
 -22  -4  -3    3.32   26.66
 -22  -4  -3   28.53   25.11
  22  -4   3   24.97   36.51
  22  -4   3   40.54   32.47
  22   4   3   52.44   38.35
 -22   4  -3  103.61   46.74
 -22   4  -3   41.59   20.00
  22   4   3   35.49   32.53
 -22   4  -3   79.83   34.84
  24  -4   3   20.27   32.60
 -24  -4  -3  -11.54   25.45
  24  -4   3   -8.92   32.57
 -24   4  -3    0.17   36.18
  24   4   3    3.35   30.41
 -24   4  -3    9.41   16.23
 -24   4  -3    0.97   30.44
  24   4   3   36.44   37.17
  26  -4   3  -14.64   29.45
 -26  -4  -3  -13.02   23.76
  26  -4   3   15.80   42.24
 -26   4  -3   12.63   16.23
  26   4   3   -5.74   29.14
  26   4   3    0.10   31.27
 -26   4  -3   -9.03   26.53
 -25  -5   3   43.01   28.90
  25  -5  -3  100.11   53.46
 -25  -5   3   61.77   21.61
  25  -5  -3   29.51   48.36
 -25  -5   3   18.14   32.08
 -25   5   3   28.67   19.56
 -25   5   3   89.31   34.04
  25   5  -3   12.81   33.56
  25   5  -3   44.51   38.74
 -23  -5   3   71.99   32.96
 -23  -5   3   82.49   18.23
  23  -5  -3  128.39   54.16
 -23  -5   3   55.30   39.61
  23  -5  -3   34.03   52.82
 -23   5   3   96.65   27.43
  23   5  -3   82.16   37.32
  23   5  -3   76.23   38.18
  23   5  -3   81.25   26.52
 -23   5   3   77.02   31.23
 -21  -5   3  133.33   38.93
  21  -5  -3  137.49   55.60
 -21  -5   3   99.70   38.79
 -21  -5   3  191.34   26.19
  21  -5  -3  144.74   61.52
  21   5  -3  106.77   40.38
  21   5  -3  122.45   33.81
  21   5  -3  103.10   40.02
 -21   5   3  162.51   39.72
 -21   5   3  142.72   56.66
 -21   5   3  125.48   32.08
 -19  -5   3  179.98   29.94
 -19  -5   3  144.73   39.56
  19  -5  -3  185.79   68.91
 -19  -5   3  185.45   47.33
  19  -5  -3  237.31   61.10
  19   5  -3  189.96   37.26
 -19   5   3  240.76   47.27
 -19   5   3  256.82   67.37
 -19   5   3  157.71   34.99
  19   5  -3  160.76   44.19
  19   5  -3  138.14   44.06
  17  -5  -3  287.76   79.99
 -17  -5   3  251.66   46.55
 -17  -5   3  206.66   37.72
  17  -5  -3  394.24   79.41
  17  -5  -3  318.67   49.39
 -17  -5   3  305.02   67.66
 -17  -5   3  205.31   56.09
 -17   5   3  264.12   71.83
  17   5  -3  180.39   48.75
  17   5  -3  268.62   54.75
 -17   5   3  279.08   51.53
  17   5  -3  252.02   42.71
 -15  -5   3  260.55   45.54
 -15  -5   3  379.19   62.46
  15  -5  -3  333.30   85.03
 -15  -5   3  214.41   57.90
  15  -5  -3  350.15   54.40
  15  -5  -3  421.83   74.25
 -15  -5   3  346.52   52.95
  15   5  -3  279.35   47.66
  15   5  -3  307.29   53.74
 -15   5   3  513.33   93.63
  15   5  -3  307.74   58.76
 -15   5   3  364.42   65.72
 -15   5   3  362.19   53.78
 -13  -5   3  369.58   55.44
  13  -5  -3  516.66   62.88
 -13  -5   3  372.14   66.58
 -13  -5   3  433.41   68.56
 -13  -5   3  417.80   60.26
  13  -5  -3  479.85   84.90
  13   5  -3  371.29   64.80
  13   5  -3  370.48   55.60
  13   5  -3  370.29   58.85
 -13   5   3  326.84   71.13
 -13   5   3  373.73   70.63
 -11  -5   3  505.78   78.94
 -11  -5   3  457.34   78.07
  11  -5  -3  577.93   74.40
  11  -5  -3  711.19   95.63
 -11  -5   3  514.65   69.91
  11  -5  -3  557.12   93.60
 -11   5   3  376.75   83.22
  11   5  -3  580.63   77.53
  11   5  -3  478.25   69.18
  11   5  -3  472.50   67.60
  -9  -5   3  467.94   70.72
  -9  -5   3  516.41   78.60
   9  -5  -3  559.10   73.90
   9  -5  -3  562.16   93.11
  -9  -5   3  506.24   70.80
  -9  -5   3  503.27   77.93
   9  -5  -3  718.82   95.19
  -9   5   3  512.84   82.47
  -9   5   3  363.23   81.27
   9   5  -3  588.51   75.79
  -7  -5   3  636.28   93.83
   7  -5  -3  747.39  107.90
  -7  -5   3  648.82   86.08
  -7  -5   3  544.10   90.40
   7  -5  -3  695.15   89.34
   7  -5  -3  755.16  106.78
  -7  -5   3  582.40   86.83
  -7   5   3  623.46   95.47
   7   5  -3  717.69   90.30
   5  -5  -3  453.91   85.51
   5  -5  -3  331.98   53.40
  -5  -5   3  386.76   58.96
   5  -5  -3  408.09   69.92
  -5  -5   3  439.35   56.12
   5   5  -3  381.58   57.15
  -5   5   3  279.22   58.90
  -3  -5   3  537.99   70.46
   3  -5  -3  433.64   83.42
  -3  -5   3  485.79   69.71
  -3  -5   3  495.24   67.62
   3  -5  -3  523.36   71.35
   3  -5  -3  492.44   83.75
  -3   5   3  505.29   75.93
   3   5  -3  560.05   68.25
  -1  -5   3  436.25   67.45
   1  -5  -3  582.99   85.54
  -1  -5   3  452.45   64.58
  -1  -5   3  529.40   66.49
   1  -5  -3  614.64   82.88
  -1  -5  -3  502.91   64.53
  -1  -5  -3  472.35   65.63
  -1  -5  -3  345.56   72.06
  -1  -5  -3  435.75   71.23
   1   5   3  442.78   60.28
   1   5   3  447.38   65.18
  -3  -5  -3  372.55   66.20
   3  -5   3  515.03   64.03
  -3  -5  -3  423.04   67.40
   3  -5   3  529.18   65.71
   3  -5   3  392.53   65.69
   3   5   3  481.44   67.83
  -3   5  -3  519.06   67.08
  -3   5  -3  497.49   61.76
   3   5   3  518.86   63.39
   3   5   3  402.09   63.22
   5  -5   3  554.28   88.02
  -5  -5  -3  802.24  100.68
   5  -5   3  730.01   90.08
   5  -5   3  587.59   87.08
   5  -5   3  628.36   91.61
  -5   5  -3  619.31   90.08
  -5   5  -3  751.49   87.64
   7  -5   3  795.49  103.91
   7  -5   3  780.77  107.00
   7  -5   3  768.89  106.58
  -7  -5  -3  722.08  108.56
  -7  -5  -3  730.16  106.75
   7  -5   3  828.49  104.35
  -7  -5  -3  583.19  110.68
  -7   5  -3  771.57  105.81
   7   5   3  956.58  109.26
   7   5   3  675.25  107.15
   7   5   3  798.17  100.29
  -7   5  -3  839.14  104.37
  -9  -5  -3  482.48   73.60
   9  -5   3  539.12   69.44
  -9  -5  -3  472.27   70.89
   9  -5   3  460.44   71.35
  -9  -5  -3  397.58   75.82
   9  -5   3  574.06   72.92
   9   5   3  434.86   71.57
  -9   5  -3  464.89   68.81
   9   5   3  396.78   67.91
  -9   5  -3  483.98   68.69
   9   5   3  439.52   61.03
   9   5   3  556.84   73.12
  11  -5   3  532.86   82.83
  11  -5   3  656.19   84.71
 -11  -5  -3  515.41   80.96
  11  -5   3  559.06   80.70
 -11  -5  -3  470.51   87.44
 -11  -5  -3  484.23   83.05
 -11   5  -3  556.16   78.60
  11   5   3  531.23   80.68
 -11   5  -3  570.20   80.93
  11   5   3  587.36   84.90
 -13  -5  -3  392.94   83.00
  13  -5   3  515.81   78.66
 -13  -5  -3  484.98   77.79
  13  -5   3  513.84   81.69
 -13  -5  -3  493.24   81.53
 -13   5  -3  464.99   72.53
  13   5   3  669.80   82.72
  13   5   3  500.94   78.01
 -13   5  -3  530.81   79.09
  13   5   3  493.06   80.86
 -13   5  -3  540.89   74.43
 -13   5  -3  504.89   73.24
 -15  -5  -3  361.19   63.59
  15  -5   3  436.17   71.22
  15  -5   3  421.26   66.41
 -15  -5  -3  399.18   68.36
 -15  -5  -3  458.66   85.25
  15   5   3  350.45   64.35
 -15   5  -3  303.24   60.51
 -15   5  -3  349.70   57.56
 -15   5  -3  401.15   67.37
 -15   5  -3  338.09   61.36
  15   5   3  410.88   69.33
 -17  -5  -3  249.13   51.18
  17  -5   3  156.80   43.87
 -17  -5  -3  173.18   50.78
  17  -5   3  131.84   46.74
 -17   5  -3  153.23   35.68
 -17   5  -3  133.47   39.26
  17   5   3  179.36   47.19
  17   5   3  260.67   55.35
 -17   5  -3  221.08   49.02
 -17   5  -3  238.87   48.69
 -19  -5  -3  169.78   42.23
 -19  -5  -3  146.31   49.77
  19  -5   3  172.22   52.98
  19  -5   3  159.83   44.11
 -19   5  -3  127.27   45.59
  19   5   3  180.06   47.73
  19   5   3  171.89   48.65
  19   5   3  320.59   56.41
 -19   5  -3  132.10   39.32
 -19   5  -3  107.98   31.07
  21  -5   3   67.31   34.79
 -21  -5  -3  136.47   37.74
 -21  -5  -3   82.55   39.70
  21  -5   3  116.52   45.71
  21   5   3  134.76   43.25
 -21   5  -3   50.32   22.31
 -21   5  -3   66.79   30.23
  21   5   3  101.98   41.34
 -21   5  -3   79.80   43.35
  23  -5   3   88.48   39.24
  23  -5   3   30.12   38.60
 -23  -5  -3   67.14   36.47
  23   5   3  101.05   43.20
 -23   5  -3  123.43   50.59
  23   5   3  165.63   51.37
 -23   5  -3   33.81   21.97
 -23   5  -3   27.61   30.61
 -25  -5  -3   23.27   31.26
  25  -5   3   41.06   35.85
  25  -5   3   27.48   41.07
  25   5   3   31.16   34.52
  25   5   3   40.10   36.16
 -25   5  -3   20.17   20.81
 -25   5  -3   41.88   47.54
 -25   5  -3   24.06   32.18
  24  -6  -3    2.78   38.29
  24  -6  -3   -8.14   39.87
 -24  -6   3   34.00   38.43
 -24  -6   3    3.01   25.54
 -24   6   3    9.16   17.94
  24   6  -3    4.47   17.65
  24   6  -3  -10.15   25.32
  24   6  -3   22.24   33.90
 -24   6   3   19.34   26.39
 -22  -6   3   -6.09    8.34
  22  -6  -3   17.81   43.98
  22  -6  -3   44.53   44.80
 -22  -6   3   13.02   25.71
 -22  -6   3   -0.01   27.76
 -22   6   3   -1.75   16.37
 -22   6   3    0.27   21.42
 -22   6   3  -11.13   33.44
  22   6  -3   -9.59   22.65
  22   6  -3    0.52   18.33
  22   6  -3   10.91   29.43
 -20  -6   3    6.74   10.79
  20  -6  -3   17.51   35.84
 -20  -6   3   11.35   24.83
 -20  -6   3   69.99   33.31
  20  -6  -3   16.46   45.51
 -20   6   3  -12.88   17.26
  20   6  -3   20.83   29.18
 -20   6   3   -2.75   17.20
  20   6  -3   27.58   23.95
 -20   6   3    4.86   37.70
  20   6  -3   16.47   17.70
 -18  -6   3   20.18   23.53
  18  -6  -3   47.46   47.24
 -18  -6   3   12.62   12.03
 -18  -6   3   71.30   30.71
  18  -6  -3   28.73   35.44
 -18  -6   3   98.86   46.80
 -18   6   3   11.68   16.44
  18   6  -3   11.90   15.30
 -18   6   3   48.14   41.20
  18   6  -3   27.05   20.31
  18   6  -3   35.33   28.34
 -18   6   3   31.32   21.63
 -16  -6   3   72.83   15.23
 -16  -6   3   74.65   29.24
  16  -6  -3   11.87   39.31
  16  -6  -3   45.16   21.99
 -16  -6   3  109.86   40.60
 -16  -6   3   44.46   23.71
  16  -6  -3  122.78   44.21
 -16   6   3   38.10   22.85
  16   6  -3   32.89   16.03
 -16   6   3   42.60   37.29
  16   6  -3   25.72   26.14
 -16   6   3   27.42   17.96
  16   6  -3   60.22   20.35
 -14  -6   3   85.15   19.22
  14  -6  -3  120.48   54.96
 -14  -6   3  123.71   38.45
 -14  -6   3  129.47   36.41
  14  -6  -3  185.78   54.10
  14  -6  -3  103.74   30.03
 -14  -6   3  108.34   28.34
 -14   6   3  110.95   41.88
  14   6  -3  106.11   31.97
 -14   6   3   66.09   25.47
 -14   6   3  127.64   44.28
 -14   6   3   39.66   21.06
  12  -6  -3  160.11   55.41
 -12  -6   3  100.75   22.12
  12  -6  -3  100.58   28.47
 -12  -6   3  159.62   42.23
  12  -6  -3  181.09   52.31
 -12  -6   3  110.92   27.67
 -12  -6   3  117.76   33.69
 -12   6   3   85.71   25.62
 -12   6   3  146.32   47.24
 -12   6   3  161.79   46.44
  12   6  -3   99.88   29.28
 -12   6   3   46.09   21.73
 -10  -6   3   61.88   17.74
  10  -6  -3   21.92   31.30
 -10  -6   3   92.94   30.63
  10  -6  -3   67.10   22.34
  10  -6  -3  119.41   40.72
 -10  -6   3   73.71   26.12
 -10   6   3  102.53   34.56
 -10   6   3   69.07   33.01
 -10   6   3   64.45   19.97
 -10   6   3   38.59   18.79
  10   6  -3   59.94   21.93
   8  -6  -3  263.45   59.90
  -8  -6   3  189.94   40.23
   8  -6  -3  157.33   33.23
  -8  -6   3  266.65   45.55
  -8  -6   3  140.37   28.30
  -8  -6   3  147.61   28.23
   8  -6  -3  281.71   66.78
  -8   6   3  182.61   31.15
  -8   6   3  232.87   49.20
  -8   6   3   85.29   28.66
  -8   6   3  165.04   50.82
  -6  -6   3  118.12   29.35
   6  -6  -3  110.24   43.18
  -6  -6   3   83.68   18.81
   6  -6  -3  101.16   24.93
  -6  -6   3  136.53   29.45
   6  -6  -3  150.65   45.88
  -6  -6   3   78.28   21.11
  -6   6   3  120.63   31.46
  -6   6   3   86.06   34.84
  -6   6   3   56.96   20.52
   6   6  -3  107.31   21.39
  -6   6   3  106.92   21.22
  -4  -6   3   12.52   12.14
  -4  -6   3   18.90    9.12
   4  -6  -3   12.40   12.10
   4  -6  -3   12.73   21.93
  -4  -6   3   22.84   12.71
   4  -6  -3   28.20   29.14
  -4  -6   3   20.27   12.29
  -4   6   3   -3.98   15.73
  -4   6   3    6.99   12.80
  -4   6   3   23.44    9.93
  -4   6   3   10.77   13.04
  -2  -6   3   42.82   11.33
   2  -6  -3   29.80   15.80
   2  -6  -3   26.97   23.87
   2  -6  -3   24.24   14.02
   2  -6  -3   28.21   25.47
  -2  -6   3   44.60   13.84
  -2   6   3   -7.36   13.41
  -2   6   3   14.28   12.66
  -2   6   3   26.25   13.56
   0  -6   3   81.50   20.13
   0  -6  -3  105.44   24.65
   0  -6  -3   71.50   32.61
   0  -6  -3   98.86   25.86
   0  -6  -3  112.50   37.39
   0   6   3   86.26   15.86
   0   6   3   90.48   21.28
   0   6   3   52.06   18.89
   0   6  -3   90.44   24.40
  -2  -6  -3   37.16   16.34
  -2  -6  -3   24.12   21.65
  -2  -6  -3    5.06   17.18
  -2  -6  -3   27.94   16.14
   2   6   3   24.46    9.43
   2   6   3   33.17   13.89
   2   6   3   28.80   13.92
  -2   6  -3   42.95   19.08
   4  -6   3   26.23   12.49
  -4  -6  -3    6.47   14.63
  -4  -6  -3   12.04   17.81
  -4  -6  -3   11.99   14.23
   4  -6   3    6.73   13.61
  -4  -6  -3    7.76   17.62
  -4   6  -3   12.34   16.71
   4   6   3   19.66   13.09
   4   6   3    4.31    9.89
   4   6   3   21.81   10.08
  -6  -6  -3  136.22   41.91
  -6  -6  -3  182.27   39.65
  -6  -6  -3  130.23   31.99
   6  -6   3  206.76   33.19
   6  -6   3  112.74   28.22
   6  -6   3  113.20   23.75
  -6  -6  -3   50.56   30.91
   6   6   3  123.86   24.58
  -6   6  -3  153.01   23.64
   6   6   3  171.90   30.59
   6   6   3  123.94   32.06
   6   6   3  116.98   23.61
  -6   6  -3   76.95   24.88
  -6   6  -3  175.72   34.84
  -8  -6  -3  214.84   41.67
   8  -6   3  199.55   39.41
  -8  -6  -3  134.78   44.30
   8  -6   3  158.52   31.92
   8  -6   3  262.89   38.92
  -8  -6  -3  255.94   49.01
   8   6   3  140.35   26.44
   8   6   3  161.57   31.44
   8   6   3  176.31   41.35
   8   6   3  253.14   36.75
  -8   6  -3  161.14   38.50
 -10  -6  -3   26.62   27.25
  10  -6   3   56.17   21.79
  10  -6   3   74.65   28.19
 -10  -6  -3   60.61   24.38
  10  -6   3   50.12   24.94
 -10  -6  -3   92.53   32.20
  10   6   3   97.41   24.55
  10   6   3   49.58   12.49
 -10   6  -3   77.16   23.77
  10   6   3   35.67   23.11
  10   6   3   73.96   23.86
 -10   6  -3   48.32   23.12
  12  -6   3  136.39   35.14
  12  -6   3   64.30   25.34
  12  -6   3  127.63   35.66
 -12  -6  -3  128.15   39.41
 -12  -6  -3   76.11   26.88
 -12  -6  -3   65.23   35.54
 -12   6  -3  129.15   32.82
  12   6   3  116.46   30.38
  12   6   3   65.54   25.12
  12   6   3   68.43   28.75
 -12   6  -3   63.31   27.57
 -14  -6  -3   99.66   31.13
 -14  -6  -3  151.32   41.73
  14  -6   3   74.78   30.00
  14  -6   3   79.12   36.16
  14  -6   3   90.86   36.69
 -14  -6  -3   76.47   38.37
 -14   6  -3  108.22   30.88
  14   6   3  124.36   38.83
  14   6   3  119.93   33.04
  14   6   3   89.23   29.98
  16  -6   3   97.67   40.51
  16  -6   3   62.83   34.18
 -16  -6  -3   31.99   30.41
  16  -6   3   27.36   26.30
 -16  -6  -3   36.81   24.55
 -16   6  -3   26.27   23.12
  16   6   3   15.32   22.89
  16   6   3   30.45   28.26
  16   6   3   74.63   28.89
 -16   6  -3  121.61   34.74
  18  -6   3   44.64   36.88
 -18  -6  -3   13.45   21.30
  18  -6   3   22.63   27.49
 -18  -6  -3   44.90   28.76
  18  -6   3   36.04   36.70
  18   6   3   29.09   24.68
  18   6   3   27.91   26.26
 -18   6  -3   -5.65   18.04
  18   6   3   24.43   28.29
 -18   6  -3   28.23   21.78
 -18   6  -3   15.88   23.02
 -20  -6  -3    8.88   22.21
  20  -6   3   -9.36   30.35
  20  -6   3   10.12   27.64
 -20  -6  -3   -6.91   24.16
  20   6   3   -0.90   25.18
 -20   6  -3   27.64   28.16
  20   6   3   18.54   24.95
  20   6   3  -14.01   21.30
 -20   6  -3   -2.14   19.00
 -20   6  -3   26.82   21.75
  22  -6   3    7.00   30.69
  22  -6   3   -7.67   33.27
 -22  -6  -3    9.64   22.65
 -22  -6  -3   16.37   30.31
  22   6   3   27.63   29.72
 -22   6  -3   32.33   22.18
 -22   6  -3   33.78   23.60
  22   6   3   -4.28   27.50
 -22   6  -3   19.77   27.64
 -24  -6  -3   22.05   29.95
  24  -6   3   -3.71   38.98
  24  -6   3   22.23   33.72
 -24   6  -3    1.62   23.40
  24   6   3   25.78   33.50
 -24   6  -3   -8.91   19.91
  24   6   3   13.58   30.72
 -24   6  -3   -0.18   25.45
 -23  -7   3   23.57   37.87
  23  -7  -3   63.82   62.33
 -23  -7   3   43.05   29.27
  23  -7  -3   84.38   47.04
 -23   7   3   70.50   27.80
 -23   7   3   30.88   44.65
 -23   7   3  119.57   34.16
  21  -7  -3   91.10   58.22
  21  -7  -3  117.86   52.76
 -21  -7   3   76.35   35.42
 -21  -7   3  112.16   42.55
 -21   7   3   92.05   33.95
 -21   7   3  124.47   52.39
  21   7  -3  101.17   32.16
 -21   7   3   81.69   27.92
 -19  -7   3  222.71   54.64
 -19  -7   3  153.47   41.23
  19  -7  -3  144.73   63.27
  19  -7  -3  200.25   61.56
 -19   7   3   99.94   31.56
 -19   7   3  175.27   39.32
  19   7  -3   95.95   37.76
 -19   7   3  230.35   56.60
 -17  -7   3  217.96   60.02
 -17  -7   3  205.96   49.80
 -17  -7   3  166.70   41.37
  17  -7  -3  178.64   57.94
  17  -7  -3  185.70   72.25
 -17   7   3  179.54   39.13
 -17   7   3  235.28   43.69
 -17   7   3  209.71   52.48
  17   7  -3  172.88   44.47
  15  -7  -3  362.53   91.72
  15  -7  -3  282.64   52.06
  15  -7  -3  322.27   73.99
 -15  -7   3  332.78   54.33
 -15  -7   3  296.08   59.34
 -15  -7   3  323.97   70.48
 -15   7   3  366.96   71.04
 -15   7   3  252.15   52.72
 -15   7   3  270.97   49.71
  15   7  -3  306.09   57.72
 -13  -7   3  463.10   69.68
  13  -7  -3  426.56  100.01
 -13  -7   3  342.47   64.35
  13  -7  -3  362.44   60.23
  13  -7  -3  423.64   77.02
 -13  -7   3  398.08   59.57
 -13   7   3  290.49   61.44
  13   7  -3  393.21   61.65
 -13   7   3  357.95   96.07
 -13   7   3  334.49   57.04
 -13   7   3  353.56   55.98
  11  -7  -3  627.22  125.37
  11  -7  -3  532.89   82.86
 -11  -7   3  487.21   88.51
 -11  -7   3  658.12   82.73
  11  -7  -3  624.00  100.26
 -11   7   3  522.17   83.88
 -11   7   3  605.05   79.88
 -11   7   3  565.89   81.92
   9  -7  -3  600.49  116.21
   9  -7  -3  817.41  113.82
  -9  -7   3  568.32   98.61
  -9  -7   3  787.54  102.50
   9  -7  -3  663.98   96.60
  -9   7   3  585.34   94.71
  -9   7   3  763.48   92.52
  -9   7   3  641.31   94.44
   9   7  -3  789.62   95.69
   7  -7  -3  883.09  126.09
   7  -7  -3  792.84  127.72
   7  -7  -3  665.90  108.60
  -7  -7   3  810.68  111.28
  -7  -7   3  921.28  105.97
  -7  -7   3  714.69  111.03
  -7   7   3  683.14  107.94
   7   7  -3  905.96  105.57
   5  -7  -3  681.64  116.02
   5  -7  -3  644.81   99.00
   5  -7  -3  772.70  115.36
  -5  -7   3  669.46   98.49
  -5  -7   3  742.95   94.62
  -5   7   3  837.16  100.11
   3  -7  -3  714.74  112.53
  -3  -7   3  697.82   92.68
   3  -7  -3  740.08  113.81
   3  -7  -3  765.67  101.41
   3  -7  -3  697.70   98.54
   1  -7  -3  678.36  124.15
   1  -7  -3  881.94  115.78
   1  -7  -3  761.46  112.86
   1  -7  -3  692.29  122.29
  -1   7   3  982.15  113.15
   1   7  -3  922.05  114.50
  -1  -7  -3  662.63  121.25
  -1  -7  -3  794.04  114.96
  -1  -7  -3  957.14  117.98
  -1   7  -3  929.48  116.70
  -3  -7  -3  846.59  123.45
  -3  -7  -3  752.86  128.66
  -3  -7  -3  922.71  124.20
  -3   7  -3  918.67  124.05
   3   7   3 1021.92  120.61
   5  -7   3  834.86  111.15
  -5  -7  -3  755.78  114.54
  -5  -7  -3  840.06  117.39
   5   7   3  966.23  111.11
   5   7   3  818.04  106.82
  -5   7  -3  771.43  115.10
   7  -7   3  664.42  102.20
   7  -7   3  630.27   98.41
  -7  -7  -3  646.79  111.72
  -7  -7  -3  853.58  109.79
   7  -7   3  717.25  103.26
  -7  -7  -3  766.52  105.89
   7   7   3  808.22   98.15
  -7   7  -3  694.44  105.14
   7   7   3  771.02  106.07
   7   7   3  910.87   99.74
  -9  -7  -3  522.29  104.03
   9  -7   3  788.49   99.02
   9  -7   3  619.52   93.15
  -9  -7  -3  769.30   99.90
  -9  -7  -3  713.26  102.75
   9  -7   3  589.53   97.60
  -9   7  -3  678.73   94.75
   9   7   3  767.82   92.53
  -9   7  -3  646.00   98.45
   9   7   3  709.43   99.85
  11  -7   3  553.97   88.24
  11  -7   3  564.35   82.84
 -11  -7  -3  567.96   86.42
 -11  -7  -3  577.70   89.22
 -11  -7  -3  427.72   90.98
  11   7   3  566.83   87.71
 -11   7  -3  576.93   84.55
  11   7   3  584.70   80.75
 -11   7  -3  561.49   86.24
  11   7   3  639.50   75.72
 -13  -7  -3  300.03   77.84
  13  -7   3  367.52   66.17
  13  -7   3  442.66   74.09
 -13  -7  -3  418.01   68.76
 -13  -7  -3  450.47   72.38
  13   7   3  484.28   64.54
 -13   7  -3  444.04   69.13
  13   7   3  444.30   71.86
 -13   7  -3  369.08   67.31
  15  -7   3  256.52   55.29
  15  -7   3  349.40   70.41
 -15  -7  -3  318.31   56.50
 -15  -7  -3  325.94   73.97
 -15   7  -3  200.06   51.24
  15   7   3  338.69   60.55
  15   7   3  306.86   51.55
 -17  -7  -3  260.04   64.28
  17  -7   3  141.45   45.14
 -17  -7  -3  268.40   51.23
  17  -7   3  212.44   56.53
  17   7   3  208.27   53.81
  17   7   3  228.11   48.45
  17   7   3  329.94   47.57
 -17   7  -3  176.85   43.93
  19  -7   3  101.18   38.74
 -19  -7  -3  150.83   41.95
  19  -7   3  104.06   45.41
 -19  -7  -3   67.77   37.16
 -19   7  -3   52.98   27.04
  19   7   3  132.65   35.95
  19   7   3   85.85   37.00
 -21  -7  -3   89.15   41.41
  21  -7   3   55.35   44.96
  21  -7   3   27.21   34.29
 -21  -7  -3  163.83   39.62
  21   7   3  113.19   44.00
 -21   7  -3   67.61   28.38
  21   7   3  117.45   38.24
 -23  -7  -3   50.00   36.87
  23  -7   3   58.66   38.43
  23  -7   3   44.05   44.67
 -23   7  -3   66.29   30.04
  23   7   3  101.80   40.86
  23   7   3   96.90   33.57
 -22  -8   3   -7.23   26.85
 -22   8   3    0.23   23.86
 -22   8   3  -11.14   15.55
  20  -8  -3   56.55   60.38
 -20  -8   3   -6.68   25.16
 -20  -8   3   11.88   30.07
  20  -8  -3    4.68   35.47
 -20   8   3    5.63   21.21
 -20   8   3   20.65   21.42
 -20   8   3  -10.67   14.39
  20   8  -3    0.58    9.00
 -18  -8   3    0.97   23.80
  18  -8  -3    7.62   31.83
 -18  -8   3   -7.14   24.86
  18  -8  -3  -16.30   43.39
  18   8  -3  -14.44    9.46
 -18   8   3    5.89   17.97
 -18   8   3  -10.59   14.63
 -18   8   3    0.49   16.14
 -16  -8   3   38.10   31.96
  16  -8  -3   33.30   35.90
 -16  -8   3   37.75   27.47
 -16  -8   3   28.63   25.34
  16  -8  -3   26.08   44.75
 -16   8   3   14.02   21.00
 -16   8   3    1.36   15.50
 -16   8   3   -9.05   16.61
  16   8  -3    0.22   16.28
  14  -8  -3   56.82   47.71
 -14  -8   3   24.33   30.96
 -14  -8   3   34.36   22.77
 -14  -8   3   18.58   23.01
  14  -8  -3   12.10   30.28
  14  -8  -3    4.28   16.70
  14   8  -3   29.98   20.55
 -14   8   3   17.93   17.89
 -12  -8   3   14.55   20.52
 -12  -8   3   26.02   20.01
 -12  -8   3   13.59   25.76
  12  -8  -3   16.41   18.93
  12  -8  -3    6.42   36.95
  12  -8  -3   30.25   31.31
 -12   8   3    5.64   17.95
 -10  -8   3   21.75   19.38
 -10  -8   3   -5.64   15.03
  10  -8  -3    8.80   16.56
  10  -8  -3   21.63   41.05
 -10  -8   3   12.81   23.03
  10  -8  -3    7.82   25.74
  10   8  -3   11.05   13.73
 -10   8   3    3.98   16.97
 -10   8   3    9.97   27.32
   8  -8  -3   59.73   42.59
  -8  -8   3   73.49   22.94
   8  -8  -3   19.41   17.47
  -8  -8   3    4.48   14.29
   8  -8  -3   -7.98   23.52
  -8   8   3    7.45   14.99
  -8   8   3   14.59   28.02
   6  -8  -3   56.21   33.14
  -6  -8   3   98.18   24.27
   6  -8  -3   69.96   40.64
   6  -8  -3   52.96   20.19
  -6   8   3    2.64   16.04
  -6   8   3    5.43   22.96
   4  -8  -3   42.46   29.58
  -4  -8   3   34.84   16.11
   4  -8  -3   47.94   20.75
  -4  -8   3   19.09    9.91
   4  -8  -3   14.45   16.98
   4  -8  -3   22.09   30.93
  -4   8   3    9.82   14.75
   2  -8  -3   68.22   32.84
   2  -8  -3   49.51   20.15
   2  -8  -3   18.82   27.29
   2  -8  -3   38.28   19.15
  -2   8   3   24.26   17.82
   2   8  -3   30.65   20.99
   0  -8  -3   77.40   35.76
   0  -8  -3  109.92   26.75
   0  -8  -3   65.66   24.19
   0  -8  -3   76.10   34.38
   0   8   3   44.58   20.29
   0   8  -3   44.67   24.41
  -2  -8  -3   18.30   23.51
  -2  -8  -3   63.09   22.84
  -2  -8  -3   23.47   17.36
  -2  -8  -3    4.68   18.54
   2   8   3   25.24   15.81
  -2   8  -3   17.83   22.13
  -4  -8  -3   49.12   22.73
  -4  -8  -3   28.34   17.56
  -4  -8  -3   13.48   22.10
  -4  -8  -3    1.38   17.59
   4   8   3   18.05   15.15
  -4   8  -3   47.16   25.58
  -6  -8  -3   47.81   27.88
  -6  -8  -3  105.57   33.42
   6  -8   3  107.88   22.44
  -6  -8  -3    7.14   19.93
  -6  -8  -3   55.53   22.64
   6  -8   3   91.64   22.86
  -6   8  -3   40.39   26.51
   6   8   3   36.32   16.87
  -8  -8  -3   91.58   33.06
  -8  -8  -3    9.76   25.12
   8  -8   3   52.73   22.91
   8  -8   3   66.75   24.47
  -8  -8  -3   17.04   21.37
   8  -8   3   36.95   14.10
  -8  -8  -3   55.00   23.03
  -8   8  -3   13.87   25.74
   8   8   3   20.49   14.44
 -10  -8  -3   -8.55   15.56
 -10  -8  -3   -8.28   21.42
 -10  -8  -3    2.25   15.60
  10  -8   3   11.36   22.25
 -10  -8  -3   -5.47   19.81
  10  -8   3  -14.51   23.66
  10  -8   3   -1.29   13.04
 -10   8  -3    5.86   14.33
  10   8   3   10.33   11.56
 -10   8  -3   11.09   16.43
 -10   8  -3   22.01   26.61
  10   8   3   14.56   18.82
 -12  -8  -3   40.92   28.01
 -12  -8  -3   16.92   21.44
  12  -8   3   74.59   31.28
  12  -8   3    8.40   17.39
 -12  -8  -3   14.72   27.83
  12  -8   3   41.37   27.29
 -12   8  -3    6.95   26.08
  12   8   3    9.98   19.58
  12   8   3    6.41   10.26
 -12   8  -3   11.20   21.19
  14  -8   3   21.46   34.89
  14  -8   3   27.65   22.21
 -14  -8  -3    9.57   30.08
 -14  -8  -3   53.37   24.90
  14  -8   3   31.54   29.45
  14   8   3   29.30   24.28
 -14   8  -3   60.34   30.97
 -14   8  -3   90.85   31.01
  14   8   3   16.02   15.08
  16  -8   3   55.44   36.70
 -16  -8  -3   17.89   32.91
  16  -8   3    9.30   22.60
  16  -8   3   13.87   37.24
 -16  -8  -3   45.29   26.94
 -16   8  -3   -2.63   25.41
  16   8   3   27.15   27.30
  16   8   3   10.00   17.16
  18  -8   3   32.25   38.69
 -18  -8  -3   11.96   31.08
 -18  -8  -3    3.94   22.89
  18  -8   3    3.00   24.29
  18   8   3    3.11   13.02
  18   8   3    1.39   17.34
  18   8   3   -9.30   20.01
 -18   8  -3   -0.30   23.25
 -20  -8  -3    7.24   31.67
  20  -8   3   44.94   43.77
  20  -8   3    6.54   27.88
 -20  -8  -3   84.02   31.00
  20   8   3   -0.99   18.40
 -20   8  -3   21.44   25.57
  20   8   3    2.55   25.31
  20   8   3  -14.01    7.89
  19  -9  -3  113.66   71.36
 -19  -9   3   37.27   28.38
 -19  -9   3   95.87   37.81
  19  -9  -3   73.79   43.21
 -19   9   3   64.69   27.33
 -17  -9   3  104.99   37.87
  17  -9  -3  109.47   46.39
 -17  -9   3  103.61   35.27
  17  -9  -3  199.52   69.26
 -17   9   3   52.61   26.35
 -15  -9   3  128.16   45.53
  15  -9  -3  239.67   77.07
 -15  -9   3  107.41   34.90
  15  -9  -3  149.37   49.86
 -15  -9   3  132.05   38.61
 -15   9   3   90.02   31.27
  13  -9  -3  195.71   74.47
  13  -9  -3  183.50   50.74
 -13  -9   3  100.22   34.15
 -13  -9   3  120.60   33.99
 -13  -9   3  151.69   47.85
 -13   9   3  141.54   35.97
 -11  -9   3  137.77   37.75
  11  -9  -3  227.88   54.42
 -11  -9   3  143.59   35.68
 -11  -9   3  231.54   51.55
  11  -9  -3  177.64   66.56
  11   9  -3  181.86   28.35
 -11   9   3  163.60   39.76
  -9  -9   3  290.47   49.49
  -9  -9   3  266.13   42.41
   9  -9  -3  223.93   57.49
   9  -9  -3  275.20   79.53
   9  -9  -3  243.20   47.02
  -9  -9   3  187.76   39.69
  -9   9   3  130.54   68.99
  -7  -9   3  301.16   53.37
  -7  -9   3  306.03   47.34
   7  -9  -3  323.35   51.13
   7  -9  -3  491.52   77.27
   7  -9  -3  353.55   64.60
   7  -9  -3  281.17   53.84
  -7   9   3  223.66   49.24
   5  -9  -3  352.28   56.18
   5  -9  -3  363.55   68.84
   5  -9  -3  417.06   90.12
   5  -9  -3  365.33   58.43
  -5  -9   3  336.16   53.99
  -5   9   3  303.37   55.19
   3  -9  -3  365.03   56.81
   3  -9  -3  328.45   65.88
   3  -9  -3  310.34   54.60
   3  -9  -3  423.09   72.20
  -3   9   3  303.52   54.46
   1  -9  -3  354.84   69.92
   1  -9  -3  363.97   80.70
   1  -9  -3  381.48   61.88
   1  -9  -3  459.34   62.06
   1   9  -3  323.85   61.18
  -1   9   3  392.19   60.00
  -1  -9  -3  315.78   71.91
  -1  -9  -3  442.38   65.97
  -1  -9  -3  460.88   67.17
  -1  -9  -3  345.94   72.43
  -1   9  -3  434.63   68.81
   1   9   3  481.75   64.67
  -3  -9  -3  293.50   50.27
  -3  -9  -3  332.66   59.16
  -3   9  -3  307.99   57.64
   3   9   3  253.94   46.92
  -5  -9  -3  248.91   61.73
  -5  -9  -3  365.55   55.21
  -5  -9  -3  273.19   50.22
   5  -9   3  263.17   44.50
   5   9   3  266.47   46.29
  -5   9  -3  325.87   56.30
   7  -9   3  201.92   42.48
  -7  -9  -3  274.37   44.56
  -7  -9  -3  154.23   48.14
  -7   9  -3  185.65   48.08
   7   9   3  196.54   36.58
   9  -9   3  278.19   47.52
   9  -9   3  200.98   45.09
  -9  -9  -3  227.43   44.84
  -9  -9  -3  117.72   47.40
   9   9   3  192.49   35.01
 -11  -9  -3  157.00   39.93
  11  -9   3  205.59   46.97
 -11  -9  -3   96.08   43.64
  11  -9   3  181.10   31.98
 -11  -9  -3  254.69   56.48
 -11   9  -3  142.75   41.26
  11   9   3  154.15   29.19
  13  -9   3   72.77   25.57
 -13  -9  -3  128.99   41.35
  13  -9   3  156.17   43.49
 -13  -9  -3   39.62   31.79
 -13  -9  -3  159.29   36.33
  13   9   3  140.60   33.12
 -13   9  -3   90.58   36.82
 -13   9  -3  109.69   29.59
  15  -9   3   56.98   27.67
 -15  -9  -3  181.88   40.23
  15  -9   3  125.25   46.31
  15  -9   3  237.27   49.90
 -15  -9  -3  120.73   45.09
 -15   9  -3   85.77   41.74
  15   9   3   95.16   32.57
 -15   9  -3   82.12   38.46
 -17  -9  -3   37.38   39.42
 -17  -9  -3  148.56   35.38
  17  -9   3   56.60   28.90
  17  -9   3  107.39   58.46
  17  -9   3   97.28   40.51
 -17   9  -3   49.75   34.86
  19  -9   3   12.82   38.06
 -19  -9  -3   85.54   32.67
  19  -9   3   59.10   28.96
 -19  -9  -3   22.05   35.79
  19   9   3   -1.23   10.84
  19   9   3   -0.05    5.30
  19   9   3    5.89    6.24
  16 -10  -3   16.68   32.56
 -16 -10   3   -9.84   20.83
 -16 -10   3   22.41   28.31
  16 -10  -3    8.14   48.39
  16  10  -3    7.95    8.24
 -14 -10   3   16.93   32.45
  14 -10  -3   22.22   29.73
  14 -10  -3   -2.85   44.89
 -14 -10   3    3.23   20.78
 -14 -10   3    7.40   24.72
 -14  10   3    4.68   20.46
  14  10  -3    0.71    5.83
 -12 -10   3   35.33   27.19
  12 -10  -3   47.07   52.20
 -12 -10   3   79.93   36.20
  12 -10  -3   31.10   31.61
 -12 -10   3   18.98   21.61
 -12  10   3   30.19   23.76
  10 -10  -3  138.33   60.30
 -10 -10   3   36.96   24.40
 -10 -10   3   60.83   30.48
  10 -10  -3   72.32   25.00
  10 -10  -3   39.59   31.62
 -10  10   3   13.29   22.68
   8 -10  -3   34.46   46.53
   8 -10  -3   48.22   22.45
   8 -10  -3   26.37   23.20
   8 -10  -3   49.03   30.38
  -8 -10   3   47.08   29.05
  -8 -10   3   14.86   18.78
  -8  10   3   -5.65   18.21
   6 -10  -3   25.64   23.01
   6 -10  -3   33.54   27.70
  -6 -10   3   41.92   22.70
   6 -10  -3   34.47   21.07
  -6 -10   3   16.65   16.19
   6 -10  -3   12.02   35.18
  -6  10   3   -3.83   18.23
   4 -10  -3   23.11   20.90
   4 -10  -3  105.29   47.18
   4 -10  -3   48.00   23.64
   4 -10  -3   83.16   34.92
  -4  10   3   13.89   22.14
   2 -10  -3   31.47   23.36
   2 -10  -3   71.92   25.10
   2 -10  -3   56.95   39.29
   2 -10  -3   67.82   31.06
  -2  10   3   28.32   22.82
   0 -10  -3   29.49   19.60
   0 -10  -3   43.73   26.88
   0 -10  -3   66.11   25.73
   0 -10  -3    4.58   26.45
   0  10  -3   22.24   27.75
   0  10   3   15.24   21.34
  -2 -10  -3   11.66   25.16
  -2 -10  -3   20.94   18.44
  -2 -10  -3   35.16   26.81
  -2 -10  -3   90.96   29.76
   2  10   3   26.29   20.59
  -2  10  -3   15.77   27.01
  -4 -10  -3   15.85   25.85
  -4 -10  -3   28.99   19.12
  -4 -10  -3   17.23   25.56
  -4 -10  -3   40.44   28.46
  -4  10  -3   41.27   31.49
   4  10   3    8.17   19.02
  -6 -10  -3   24.14   24.92
   6 -10   3   47.93   20.66
  -6 -10  -3  -16.03   18.96
  -6 -10  -3   12.25   26.73
   6 -10   3   38.50   19.52
  -6 -10  -3   -0.04   17.20
  -6  10  -3   32.39   31.70
   6  10   3   -1.59   16.88
   8 -10   3   21.09   22.25
  -8 -10  -3   19.54   19.98
   8 -10   3   33.78   24.56
  -8 -10  -3   20.27   18.42
  -8 -10  -3   -8.20   21.34
  -8 -10  -3   12.29   27.16
  -8  10  -3   18.27   31.81
   8  10   3    2.10   16.60
 -10 -10  -3   10.59   26.70
 -10 -10  -3    1.46   16.76
  10 -10   3   23.00   27.15
 -10 -10  -3    0.54   19.86
  10 -10   3   21.64   27.98
 -10  10  -3   37.55   32.62
  10  10   3    5.18   16.40
  12 -10   3    2.43   30.18
 -12 -10  -3    4.65   18.82
 -12 -10  -3   -2.01   29.35
 -12 -10  -3   14.59   22.09
  12 -10   3   -0.59   26.21
 -12  10  -3   -9.44   26.06
  14 -10   3   25.83   36.33
  14 -10   3  -20.09   27.88
 -14 -10  -3   17.80   24.31
 -14 -10  -3   -6.28   26.85
  14 -10   3   10.92   17.55
 -14 -10  -3   -2.07   18.44
 -14  10  -3   18.66   32.93
  16 -10   3   46.05   39.06
  16 -10   3   -4.87   33.44
 -16 -10  -3    3.13   34.80
  11 -11  -3  150.54   41.98
 -11 -11   3  244.93   56.80
  11 -11  -3  164.48   40.13
 -11 -11   3   82.74   34.31
  11 -11  -3  287.52   73.31
 -11  11   3   96.25   34.82
  -9 -11   3  214.29   54.70
   9 -11  -3  230.04   74.11
   9 -11  -3  273.85   48.20
   9 -11  -3  205.91   49.38
  -9 -11   3  122.63   38.52
   7 -11  -3  310.97   47.65
   7 -11  -3  217.04   43.03
   7 -11  -3  184.90   69.73
   7 -11  -3  190.31   47.87
  -7 -11   3  216.54   48.29
  -7 -11   3  152.88   36.86
  -7  11   3  156.83   44.40
   5 -11  -3  174.58   45.60
   5 -11  -3  196.53   66.19
   5 -11  -3  269.65   42.06
  -5 -11   3  138.71   33.99
  -5 -11   3  232.22   44.39
  -5  11   3  176.64   43.31
   3 -11  -3  192.13   46.81
   3 -11  -3  174.96   59.15
   3 -11  -3  216.02   41.68
  -3  11   3  155.54   41.43
   1 -11  -3  254.03   45.53
   1 -11  -3  216.85   54.58
   1 -11  -3  258.87   67.35
   1 -11  -3  372.34   51.98
   1  11  -3  170.04   50.29
  -1  11   3  216.19   49.92
  -1 -11  -3  173.52   49.68
  -1 -11  -3  290.47   68.53
  -1 -11  -3  243.31   42.80
  -1 -11  -3  304.12   50.69
   1  11   3  181.97   43.27
  -1  11  -3  132.66   48.48
  -3 -11  -3  377.17   54.58
  -3 -11  -3  235.47   43.26
  -3 -11  -3  123.77   48.65
  -3 -11  -3  191.22   51.11
   3  11   3  280.22   51.68
  -3  11  -3  171.55   50.54
  -5 -11  -3  244.22   41.18
  -5 -11  -3  104.33   45.61
  -5 -11  -3  305.72   59.14
  -5 -11  -3  160.80   49.54
  -5  11  -3  100.07   45.80
   5  11   3  236.45   46.27
  -7 -11  -3  114.51   50.58
   7 -11   3  239.98   44.36
  -7 -11  -3  216.33   43.14
  -7  11  -3  100.92   47.01
   7  11   3  238.85   41.80
  -9 -11  -3  284.31   46.98
   9 -11   3  220.76   49.78
  -9 -11  -3  184.54   57.03
  -9  11  -3  127.14   50.78
   9  11   3  230.86   41.61
  11 -11   3  144.86   44.05
 -11 -11  -3  167.46   37.01
 -11 -11  -3  109.95   41.89
  11 -11   3   55.97   34.87
   2 -12  -3    8.70   34.97
   0 -12  -3    2.72   32.50
  28   0  -4   69.39   54.06
  28   0  -4  155.57   64.75
 -28   0   4   24.18   26.27
  26   0  -4   38.02   46.28
 -26   0   4   60.71   32.13
  26   0  -4   92.38   52.25
 -24   0   4  149.65   44.78
  24   0  -4  290.35   70.49
  24   0  -4  245.44   77.62
 -22   0   4  188.58   44.50
  22   0  -4  152.36   55.07
  22   0  -4  153.26   61.46
 -20   0   4  211.39   45.85
  20   0  -4  365.74   76.38
 -20   0   4  148.80   51.21
  20   0  -4  278.54   74.78
  18   0  -4  538.05   80.14
  18   0  -4  669.37  101.03
 -18   0   4  437.97   88.31
  18   0  -4  573.56   98.80
 -18   0   4  487.73   89.50
 -18   0   4  516.43   79.17
 -16   0   4  498.81   94.82
 -16   0   4  441.83   94.37
  16   0  -4  587.42   87.11
 -16   0   4  662.84   87.72
  16   0  -4  677.01  106.65
  16   0  -4  809.59  107.42
  14   0  -4  704.74  103.23
  14   0  -4  679.79   85.55
 -14   0   4  513.93   93.77
 -14   0   4  479.70   92.67
  12   0  -4 1037.08  144.91
 -12   0   4 1056.39  130.88
  12   0  -4  914.54  144.31
  12   0  -4  897.55  130.66
 -10   0   4 1802.38  222.65
 -10   0   4 1435.64  231.74
  10   0  -4 2024.19  238.44
 -10   0   4 1557.62  232.35
  10   0  -4 1810.76  223.61
  -8   0   4 1841.58  217.22
   8   0  -4 1975.89  231.49
  -8   0   4 1404.38  226.81
  -8   0   4 1500.49  226.02
   8   0  -4 1685.70  217.41
   6   0  -4 1559.04  211.53
   6   0  -4 1614.97  221.49
  -6   0   4 1519.78  220.40
  -6   0   4 1831.03  211.95
   6   0  -4 1620.61  222.89
   4   0  -4 2245.08  294.03
  -4   0   4 2198.38  302.45
   4   0  -4 2398.29  303.71
   4   0  -4 2148.34  304.42
  -4   0   4 2475.38  294.41
   2   0  -4 1986.63  233.95
  -2   0   4 1807.72  241.48
   2   0  -4 1533.51  242.61
   2   0  -4 1892.34  242.53
   0   0  -4 1399.97  175.92
   0   0  -4 1332.34  183.38
   0   0  -4 1365.50  175.19
   0   0   4 1243.35  181.70
  -2   0  -4 3355.49  431.02
   2   0   4 3280.61  430.10
  -4   0  -4 1980.75  259.22
  -4   0  -4 2112.42  259.45
   4   0   4 2106.63  260.04
   4   0   4 2000.05  266.31
  -4   0  -4 1785.03  264.92
   4   0   4 1980.72  259.49
  -6   0  -4 2155.73  286.25
   6   0   4 2332.20  287.61
  -6   0  -4 2274.07  285.64
  -6   0  -4 1866.76  290.64
   6   0   4 2293.87  292.74
   6   0   4 2250.33  280.26
   6   0   4 2254.10  286.38
  -8   0  -4 1465.87  212.85
  -8   0  -4 1633.89  206.17
   8   0   4 1619.45  207.48
  -8   0  -4 1461.18  206.96
   8   0   4 1582.80  211.93
   8   0   4 1510.69  208.32
   8   0   4 1646.56  200.28
  10   0   4 1725.73  229.16
  10   0   4 1790.92  233.02
  10   0   4 1696.77  231.36
 -10   0  -4 1741.37  229.91
 -10   0  -4 1446.60  233.13
 -10   0  -4 1754.79  227.32
  10   0   4 1873.05  220.84
  12   0   4 1379.78  165.42
 -12   0  -4 1191.90  175.61
  12   0   4 1508.10  180.96
 -12   0  -4 1124.78  180.61
 -12   0  -4 1196.06  172.45
  12   0   4 1312.83  179.07
  12   0   4 1297.06  175.76
 -14   0  -4  858.32  135.26
  14   0   4 1106.33  139.64
  14   0   4 1011.74  139.81
  14   0   4  961.33  136.28
  14   0   4 1010.41  123.37
 -14   0  -4  914.50  132.24
 -14   0  -4  766.15  139.25
 -16   0  -4  459.26   89.60
  16   0   4  706.07   95.95
 -16   0  -4  514.94   86.26
 -16   0  -4  442.29   93.67
  16   0   4  521.05   90.37
  16   0   4  560.67   94.37
  16   0   4  686.04   76.89
  18   0   4  447.88   69.61
  18   0   4  330.70   66.02
 -18   0  -4  225.24   69.89
  18   0   4  304.25   73.35
 -18   0  -4  286.64   58.52
 -18   0  -4  394.21   80.40
  20   0   4  100.52   41.21
 -20   0  -4  132.26   46.50
  20   0   4  159.98   45.71
  22   0   4  125.26   45.61
 -22   0  -4  188.43   55.29
  22   0   4  145.47   48.34
 -24   0  -4   77.77   40.47
  24   0   4   81.60   41.85
  24   0   4   91.59   42.78
  26   0   4   66.23   37.17
 -26   0  -4   36.45   37.55
  26   0   4   -2.81   32.56
  28   0   4   22.10   36.40
 -28   0  -4  -14.79   25.54
  28   0   4   34.49   40.94
  27  -1  -4  -10.69   38.01
  27  -1  -4   21.44   45.81
 -27  -1   4    0.26   22.06
  27   1  -4   24.00   42.67
  27   1  -4   -7.56   35.29
 -27   1   4   19.52   26.16
  25  -1  -4   23.94   44.09
 -25  -1   4    5.67   24.03
  25  -1  -4    7.50   40.78
 -25   1   4    5.67   23.85
  25   1  -4   11.28   38.06
  25   1  -4    8.87   39.14
  23  -1  -4   34.61   40.52
  23  -1  -4   64.02   51.09
 -23  -1   4   11.45   23.82
  23   1  -4   50.65   43.27
 -23   1   4    4.31   23.10
  23   1  -4   50.03   43.75
 -21  -1   4   80.33   33.71
  21  -1  -4   24.30   36.02
 -21  -1   4   11.81   21.13
  21  -1  -4    7.17   32.67
  21   1  -4    9.61   35.49
 -21   1   4    2.63   19.64
  21   1  -4   31.81   37.39
  19  -1  -4  168.18   51.84
 -19  -1   4  122.43   49.70
  19  -1  -4   83.81   28.88
  19  -1  -4  156.97   55.82
 -19  -1   4   49.40   25.12
 -19  -1   4   90.28   34.98
 -19   1   4  128.23   42.05
  19   1  -4  135.97   51.68
  19   1  -4  107.85   43.18
 -19   1   4   68.55   26.59
 -19   1   4   30.02   34.52
  19   1  -4   66.37   25.41
 -17  -1   4   44.16   27.43
  17  -1  -4  119.49   44.30
 -17  -1   4   67.34   38.48
  17  -1  -4   74.23   26.56
 -17  -1   4   74.71   26.17
  17  -1  -4   95.50   46.37
  17   1  -4   58.47   39.52
  17   1  -4   63.08   25.90
  17   1  -4  105.24   43.24
 -17   1   4   54.12   36.55
 -17   1   4   90.54   38.52
 -17   1   4   71.01   25.19
 -15  -1   4   85.34   35.73
 -15  -1   4   71.52   30.90
  15  -1  -4   80.57   25.90
  15  -1  -4   76.29   38.24
  15  -1  -4  152.86   48.47
 -15   1   4   80.22   32.20
 -15   1   4   55.02   23.49
  15   1  -4  158.40   47.33
 -15   1   4  107.41   40.43
  15   1  -4   87.11   25.70
  15   1  -4  126.62   46.93
  13  -1  -4  161.75   50.12
  13  -1  -4  263.36   43.63
 -13  -1   4  134.63   33.13
 -13  -1   4  234.19   54.88
 -13  -1   4  211.59   54.24
  13  -1  -4  299.79   62.23
  13   1  -4  287.23   62.44
  13   1  -4  155.98   35.49
 -13   1   4  224.29   55.13
 -13   1   4  154.21   49.43
 -11  -1   4   64.42   19.97
 -11  -1   4  133.15   40.85
 -11  -1   4   93.61   35.18
  11  -1  -4  227.84   52.89
  11  -1  -4   96.92   39.53
  11  -1  -4  100.26   25.79
  11   1  -4   95.44   23.99
 -11   1   4   57.76   19.65
 -11   1   4  132.54   40.69
 -11   1   4  136.95   42.74
  11   1  -4  203.40   49.23
  -9  -1   4  178.42   32.10
  -9  -1   4  243.38   53.67
   9  -1  -4  197.79   33.49
  -9  -1   4  279.27   58.51
   9  -1  -4  172.39   49.50
   9  -1  -4  306.55   60.52
   9   1  -4  326.35   59.07
  -9   1   4  191.49   52.93
   9   1  -4  184.55   32.57
  -9   1   4  153.16   31.47
  -9   1   4  271.31   58.71
   7  -1  -4  500.05   70.54
  -7  -1   4  327.02   49.89
   7  -1  -4  315.57   50.60
  -7  -1   4  349.91   60.06
   7  -1  -4  332.90   62.98
  -7  -1   4  366.98   63.89
   7   1  -4  421.90   62.77
  -7   1   4  323.17   49.92
  -7   1   4  321.63   60.93
   7   1  -4  483.95   65.72
  -7   1   4  299.40   61.71
   7   1  -4  326.68   50.42
  -5  -1   4   65.90   24.91
   5  -1  -4   56.65   16.40
   5  -1  -4   42.90   23.65
  -5  -1   4   49.31   24.35
   5  -1  -4   41.02   24.61
  -5  -1   4   28.14   12.88
   5   1  -4   56.31   25.47
  -5   1   4   50.15   25.52
  -5   1   4   32.41   21.48
  -5   1   4   37.87   13.66
   5   1  -4   72.08   27.32
   5   1  -4   63.53   16.39
   3  -1  -4   26.27   24.60
   3  -1  -4   43.46   15.05
  -3  -1   4   37.92   22.54
  -3  -1   4   47.27   15.00
   3  -1  -4   45.26   25.98
  -3  -1   4   29.71   18.56
   3   1  -4   47.75   23.96
  -3   1   4   70.99   25.84
   3   1  -4   68.78   25.96
  -3   1   4   76.90   18.33
  -3   1   4    3.78   17.42
   3   1  -4   53.98   15.31
   1  -1  -4  549.34   97.57
  -1  -1   4  604.23   93.03
   1  -1  -4  638.30   86.22
  -1  -1   4  716.54   86.62
   1  -1  -4  629.30   96.14
   1   1  -4  564.06   85.36
  -1   1   4  717.40   86.98
   1   1  -4  647.25   85.58
   1   1  -4  628.41   96.60
   1   1  -4  672.61   93.23
  -1   1   4  539.45   92.56
  -1  -1  -4   49.66   16.60
   1  -1   4   25.51   18.42
   1  -1   4   68.79   17.83
  -1  -1  -4   51.03   24.61
  -1  -1  -4   48.44   24.12
   1  -1   4   18.60   19.54
  -1  -1  -4   45.50   15.70
   1   1   4   31.53   14.45
   1   1   4   13.29   16.90
  -1   1  -4   49.34   22.47
  -1   1  -4   27.86   21.67
  -1   1  -4   20.39   12.18
   1   1   4   40.58   22.04
  -1   1  -4   23.89   11.88
  -3  -1  -4   37.40   24.07
  -3  -1  -4   63.54   21.24
  -3  -1  -4  102.26   24.42
   3  -1   4   93.77   22.94
   3  -1   4   85.07   21.96
  -3  -1  -4   68.69   28.96
   3  -1   4   84.74   29.26
  -3   1  -4   37.32   22.91
  -3   1  -4   70.72   28.16
   3   1   4   83.09   29.43
   3   1   4  107.82   26.03
   3   1   4   95.93   22.83
  -3   1  -4  103.85   22.30
  -3   1  -4   97.97   22.00
  -5  -1  -4  239.77   52.97
   5  -1   4  231.20   35.27
   5  -1   4  203.36   45.78
  -5  -1  -4  145.81   32.30
   5  -1   4  195.39   33.79
  -5  -1  -4  205.93   34.73
   5  -1   4  181.58   28.53
  -5   1  -4   97.15   38.81
   5   1   4  219.67   35.85
   5   1   4  190.02   35.00
  -5   1  -4  236.55   34.96
  -5   1  -4  173.46   32.81
   5   1   4  287.55   53.79
  -5   1  -4  285.88   54.39
  -7  -1  -4  180.52   35.57
   7  -1   4  177.56   32.98
   7  -1   4  153.79   40.59
  -7  -1  -4  144.86   41.47
  -7  -1  -4  211.94   34.91
   7  -1   4  204.46   36.25
   7  -1   4  137.72   25.85
   7   1   4  220.40   41.63
   7   1   4  185.45   42.85
   7   1   4  162.32   33.84
  -7   1  -4  158.21   31.17
  -7   1  -4  202.11   34.31
  -7   1  -4  165.61   41.78
   9  -1   4   53.67   25.55
   9  -1   4   51.61   21.21
   9  -1   4   75.52   25.16
  -9  -1  -4   19.57   21.18
  -9  -1  -4   51.31   21.37
  -9  -1  -4   60.67   20.51
   9  -1   4   39.67   12.94
   9   1   4   43.53   22.42
  -9   1  -4   48.29   18.83
  -9   1  -4   63.69   23.31
  -9   1  -4   46.36   25.91
   9   1   4   67.18   26.71
   9   1   4   48.80   11.99
   9   1   4   39.48   20.35
 -11  -1  -4  145.85   34.33
  11  -1   4  133.93   38.72
  11  -1   4  160.23   39.43
  11  -1   4   85.50   22.20
 -11  -1  -4  137.05   43.13
 -11  -1  -4  252.40   48.56
  11  -1   4  183.30   38.60
  11   1   4  143.99   36.77
  11   1   4  128.27   20.81
 -11   1  -4  133.37   41.19
 -11   1  -4  272.16   50.46
  11   1   4  192.63   44.53
 -11   1  -4  135.60   32.81
  11   1   4  203.00   43.49
  13  -1   4   26.02   11.69
  13  -1   4   72.69   26.43
  13  -1   4   54.19   27.17
 -13  -1  -4   31.15   27.58
 -13  -1  -4   46.83   20.87
  13  -1   4   51.58   27.82
 -13  -1  -4   79.60   27.52
  13   1   4   47.66   24.46
 -13   1  -4   66.43   23.69
  13   1   4   38.63   27.27
  13   1   4   39.87   10.25
 -13   1  -4   51.95   29.02
  13   1   4   50.27   26.51
 -13   1  -4  100.79   32.14
  15  -1   4  123.50   37.93
  15  -1   4  152.52   43.81
 -15  -1  -4   47.81   35.47
 -15  -1  -4  199.81   47.61
  15  -1   4   73.54   20.08
 -15  -1  -4  120.50   33.09
  15  -1   4  174.48   46.80
 -15   1  -4  179.04   27.46
 -15   1  -4   98.01   38.22
  15   1   4  162.93   42.64
  15   1   4  174.69   47.94
 -15   1  -4  217.53   49.08
  15   1   4  176.69   42.10
 -15   1  -4  133.91   33.51
  15   1   4  104.44   18.95
 -17  -1  -4   47.14   24.42
 -17  -1  -4  115.31   38.80
  17  -1   4   66.68   33.36
 -17  -1  -4   15.56   28.68
  17  -1   4   29.92   28.53
  17  -1   4   62.20   33.67
 -17   1  -4   49.99   24.93
 -17   1  -4   10.54   25.88
  17   1   4   97.09   40.64
 -17   1  -4  127.31   36.22
  17   1   4   80.96   32.91
 -17   1  -4   75.56   18.38
  17   1   4  106.68   37.74
  19  -1   4  -17.09   22.64
 -19  -1  -4   -1.47   23.47
  19  -1   4   -0.33   24.47
 -19  -1  -4   12.63   22.02
  19  -1   4   13.72   47.17
 -19  -1  -4   -5.62   16.09
  19   1   4    3.98   23.11
 -19   1  -4    2.52   26.26
  19   1   4   23.46   39.46
 -19   1  -4    5.29   24.12
  19   1   4   -4.26   22.88
 -19   1  -4   23.97   21.22
 -19   1  -4    8.34   10.48
  21  -1   4    5.53   28.21
  21  -1   4   28.50   32.63
 -21  -1  -4   21.68   27.81
 -21   1  -4   16.13   12.43
  21   1   4    7.03   28.93
 -21   1  -4   23.36   30.92
  21   1   4   44.32   33.37
  23  -1   4   18.31   30.88
 -23  -1  -4   36.71   33.30
  23  -1   4   14.63   31.67
 -23   1  -4   17.85   30.65
  23   1   4   25.33   36.91
 -23   1  -4   27.96   13.75
  23   1   4   32.30   32.37
 -25  -1  -4   -4.74   26.42
  25  -1   4   16.63   33.71
  25  -1   4   41.06   36.20
  25   1   4   10.43   35.98
 -25   1  -4    0.25   30.16
 -25   1  -4   13.72   11.69
  25   1   4   13.42   32.26
  27  -1   4  -10.20   31.55
 -27  -1  -4   22.79   31.51
  27  -1   4  -11.72   31.44
 -27   1  -4   68.85   36.09
  27   1   4  -22.76   27.61
  27   1   4    6.20   36.05
  28  -2  -4  111.27   58.77
 -28  -2   4    2.80   24.42
  28  -2  -4   -7.57   37.76
  28   2  -4   13.04   45.08
 -28   2   4   32.40   27.77
  28   2  -4   28.12   39.61
  26  -2  -4   65.29   52.75
 -26  -2   4   74.60   33.56
  26  -2  -4   62.83   53.76
  26   2  -4   84.08   45.95
  26   2  -4   66.71   43.72
 -26   2   4   50.26   30.22
  24  -2  -4  245.81   73.31
  24  -2  -4   82.67   56.60
 -24  -2   4  116.35   38.46
 -24   2   4  181.97   45.57
  24   2  -4  188.64   62.82
  24   2  -4  166.92   55.68
 -22  -2   4  128.73   44.96
  22  -2  -4  151.62   57.25
  22  -2  -4  180.75   59.32
 -22  -2   4  135.59   36.88
 -22   2   4  149.94   38.56
  22   2  -4   32.92   39.82
  22   2  -4  183.34   54.19
  20  -2  -4  151.25   60.75
  20  -2  -4  290.96   73.23
 -20  -2   4  159.93   41.11
 -20  -2   4  162.67   47.64
  20   2  -4  163.72   37.81
 -20   2   4  233.82   48.09
  20   2  -4  138.05   54.39
  20   2  -4  241.73   58.76
  18  -2  -4  640.73   97.09
 -18  -2   4  342.81   78.61
  18  -2  -4  412.35   72.76
 -18  -2   4  491.17   70.85
  18  -2  -4  450.98  101.69
 -18  -2   4  447.26   83.09
  18   2  -4  515.79   86.37
  18   2  -4  399.26   68.55
 -18   2   4  421.06   96.40
 -18   2   4  385.87   76.58
  18   2  -4  544.86   86.73
 -18   2   4  463.93   70.71
  16  -2  -4  560.98   86.93
  16  -2  -4  524.48  108.78
 -16  -2   4  429.54   76.31
 -16  -2   4  329.01   72.19
  16  -2  -4  355.78   63.84
  16   2  -4  453.52   79.69
 -16   2   4  417.44   64.51
 -16   2   4  367.76   86.28
  16   2  -4  490.27   78.58
 -16   2   4  437.20   96.29
  16   2  -4  420.05   64.57
 -14  -2   4  389.56   78.90
 -14  -2   4  463.36   81.97
  14  -2  -4  681.12   95.50
  14  -2  -4  420.86   71.52
  14  -2  -4  572.20   93.00
 -14   2   4  451.86   83.18
  14   2  -4  553.17   85.59
  14   2  -4  583.18   73.06
 -14   2   4  359.36   79.32
 -14   2   4  573.06   73.71
  12  -2  -4  677.44   79.26
 -12  -2   4  426.28   83.25
 -12  -2   4  468.75   85.31
 -12  -2   4  568.30   76.08
  12  -2  -4  789.06  102.12
  12   2  -4  478.21   75.65
 -12   2   4  431.57   86.73
  12   2  -4  581.46   88.32
 -12   2   4  622.30   92.33
 -10  -2   4  702.39  114.19
 -10  -2   4  797.01  117.42
  10  -2  -4  690.20  106.16
  10  -2  -4  761.32  121.67
 -10  -2   4  932.56  106.71
  10   2  -4  811.97  106.15
  10   2  -4 1024.86  119.60
 -10   2   4  623.26  116.42
 -10   2   4  662.42  116.25
 -10   2   4  848.43  106.38
   8  -2  -4 1069.61  151.12
  -8  -2   4 1282.25  150.73
  -8  -2   4 1143.15  159.05
  -8  -2   4 1149.60  161.88
   8  -2  -4 1218.42  166.10
  -8   2   4  942.02  159.76
   8   2  -4 1147.89  150.38
  -8   2   4 1187.19  150.54
  -8   2   4  914.98  161.31
   8   2  -4 1435.44  161.12
  -6  -2   4 1224.73  139.85
   6  -2  -4  984.12  151.87
  -6  -2   4  983.34  146.57
   6  -2  -4 1221.10  157.52
  -6  -2   4  899.26  148.68
   6  -2  -4 1030.90  140.15
   6   2  -4 1165.74  148.84
   6   2  -4 1116.34  146.39
  -6   2   4  879.66  148.40
  -6   2   4 1173.79  139.85
   6   2  -4  966.55  138.54
  -4  -2   4 2005.33  259.64
   4  -2  -4 2091.78  276.09
   4  -2  -4 2245.55  274.63
   4  -2  -4 2159.87  261.29
  -4  -2   4 1854.12  266.34
  -4   2   4 1866.90  268.91
   4   2  -4 2241.77  265.87
   4   2  -4 2045.33  267.70
   4   2  -4 1823.77  258.85
  -2  -2   4 1281.12  188.42
   2  -2  -4 1484.29  195.84
   2  -2  -4 1175.51  195.36
   2  -2  -4 1507.42  183.84
  -2  -2   4 1416.14  182.53
  -2   2   4 1649.63  183.58
   2   2  -4 1462.72  186.97
  -2   2   4 1498.91  192.75
   2   2  -4 1194.92  188.64
   2   2  -4 1368.11  181.54
   0  -2  -4 1385.26  173.30
   0  -2   4 1495.18  171.96
   0  -2  -4 1121.11  171.11
   0  -2   4 1229.51  176.75
   0  -2  -4 1236.38  181.65
   0   2  -4 1362.07  171.13
   0   2  -4 1259.29  174.30
   0   2   4 1432.72  171.97
   0   2   4 1270.95  179.81
   0   2  -4 1281.32  169.92
  -2  -2  -4 1739.95  224.18
   2  -2   4 1766.19  219.60
   2  -2   4 1598.68  227.92
   2  -2   4 1892.83  222.93
  -2  -2  -4 1565.94  222.80
  -2  -2  -4 1480.97  229.85
  -2   2  -4 1795.98  221.58
  -2   2  -4 1691.81  225.87
  -2   2  -4 1736.13  221.79
   2   2   4 1741.56  223.00
   2   2   4 1816.33  231.19
   4  -2   4 1902.27  236.81
  -4  -2  -4 1835.80  237.61
   4  -2   4 1926.14  232.98
  -4  -2  -4 1644.25  236.82
   4  -2   4 1689.60  241.99
  -4   2  -4 1789.29  240.43
   4   2   4 1805.96  243.29
   4   2   4 1682.63  236.35
   4   2   4 1869.28  238.29
  -4   2  -4 2018.30  236.22
  -6  -2  -4 1296.68  168.13
   6  -2   4 1349.54  166.92
  -6  -2  -4 1251.84  168.48
   6  -2   4 1286.31  162.79
   6  -2   4 1265.79  173.22
  -6  -2  -4 1138.28  173.67
   6  -2   4 1361.41  168.81
   6   2   4 1273.40  168.08
   6   2   4 1309.24  173.58
  -6   2  -4 1242.32  165.39
  -6   2  -4 1277.49  166.91
  -6   2  -4  987.58  169.36
   6   2   4 1294.80  168.73
   8  -2   4  730.15  112.01
   8  -2   4  795.49  105.14
  -8  -2  -4  948.38  112.48
   8  -2   4  730.09  114.00
  -8  -2  -4  858.90  120.02
  -8  -2  -4  789.28  112.21
   8  -2   4  720.63  109.37
  -8   2  -4  710.82  110.15
   8   2   4  898.78  113.49
  -8   2  -4  778.94  108.82
   8   2   4  877.41  113.09
  10  -2   4  776.32   98.20
  10  -2   4  729.09  104.61
  10  -2   4  789.17  109.60
 -10  -2  -4  594.90  110.43
 -10  -2  -4  717.13  106.21
 -10  -2  -4  797.29  105.16
  10  -2   4  732.80  107.89
  10   2   4  969.69  113.22
  10   2   4  851.47  108.64
  10   2   4  797.22  107.65
 -10   2  -4  712.44  105.06
 -10   2  -4  575.43  107.33
 -10   2  -4  682.84  102.41
 -10   2  -4  710.11   98.29
  12  -2   4  733.15   95.15
 -12  -2  -4  533.67   93.01
 -12  -2  -4  501.81   90.15
  12  -2   4  723.25   98.50
  12   2   4  573.10   95.04
  12   2   4  621.26   81.29
 -12   2  -4  789.88   93.46
  12   2   4  665.87   97.89
 -12   2  -4  645.10   94.80
 -12   2  -4  639.13   99.55
 -12   2  -4  697.21   85.99
  12   2   4  535.54   93.56
  14  -2   4  581.60   88.80
 -14  -2  -4  565.47   88.66
 -14  -2  -4  687.31   87.91
  14  -2   4  583.42   77.43
 -14  -2  -4  608.56   96.79
  14  -2   4  612.67   93.22
  14  -2   4  673.49   93.04
  14   2   4  642.06   91.11
  14   2   4  580.12   91.80
 -14   2  -4  555.84   88.43
 -14   2  -4  483.83   84.34
 -14   2  -4  447.76   76.74
  16  -2   4  358.11   68.98
 -16  -2  -4  435.41   68.42
  16  -2   4  549.53   79.03
 -16  -2  -4  304.80   75.56
 -16  -2  -4  468.24   72.60
  16  -2   4  449.50   75.89
  16  -2   4  410.79   57.35
  16   2   4  417.26   75.92
 -16   2  -4  479.88   88.69
 -16   2  -4  425.34   69.08
 -16   2  -4  338.66   56.79
 -16   2  -4  289.72   74.79
  16   2   4  450.24   73.41
 -18  -2  -4  337.30   59.41
 -18  -2  -4  241.44   76.98
  18  -2   4  363.24   64.08
 -18  -2  -4  231.49   64.03
  18  -2   4  286.67   70.28
 -18   2  -4  310.46   46.87
  18   2   4  390.55   78.12
 -18   2  -4  215.33   62.04
  18   2   4  327.21   64.91
 -18   2  -4  423.55   66.98
  20  -2   4  183.48   48.77
 -20  -2  -4   81.78   42.14
 -20  -2  -4  181.38   45.38
  20  -2   4  147.06   52.31
  20   2   4  135.73   50.88
 -20   2  -4  254.30   62.26
 -20   2  -4   77.48   42.26
  20   2   4  200.78   52.96
 -20   2  -4  160.98   30.36
 -22  -2  -4  112.06   44.22
  22  -2   4  204.71   51.96
  22  -2   4  199.72   54.51
  22   2   4  355.15   75.86
  22   2   4  213.45   54.00
 -22   2  -4  145.88   29.06
 -22   2  -4  110.88   43.37
  24  -2   4  116.01   44.61
 -24  -2  -4   58.33   35.78
  24  -2   4  132.02   50.29
 -24   2  -4   85.10   22.94
  24   2   4  139.36   51.75
 -24   2  -4  149.65   51.55
  24   2   4  119.22   44.25
  26  -2   4   92.88   48.99
  26  -2   4   74.95   38.97
 -26  -2  -4    9.45   29.83
 -26   2  -4   92.10   43.10
  26   2   4   57.33   37.20
  26   2   4   92.44   46.78
 -26   2  -4   52.30   17.67
  28  -2   4   20.91   41.24
 -28  -2  -4   -9.39   24.47
 -28   2  -4   27.17   38.95
  28   2   4   28.82   44.64
 -27  -3   4   16.06   25.79
  27  -3  -4   25.66   46.60
  27  -3  -4  -27.83   38.19
  27   3  -4   30.38   39.67
 -27   3   4   13.18   22.97
  27   3  -4   18.04   43.34
  25  -3  -4   31.22   43.56
 -25  -3   4   21.62   26.24
  25  -3  -4  -14.35   35.66
  25   3  -4   17.09   35.15
  25   3  -4    7.69   37.11
 -25   3   4    2.42   22.16
 -23  -3   4   41.96   27.42
  23  -3  -4   43.80   42.66
 -23  -3   4   27.50   31.68
  23  -3  -4   -6.83   34.43
 -23   3   4    2.52   21.83
  23   3  -4   22.98   36.73
  23   3  -4   36.60   40.61
  21  -3  -4   29.71   41.23
  21  -3  -4   65.81   47.29
 -21  -3   4    9.09   21.06
 -21  -3   4   13.85   28.51
  21   3  -4   30.93   34.10
 -21   3   4   10.34   21.74
  21   3  -4   19.65   20.40
  21   3  -4   56.72   38.99
  19  -3  -4   47.33   36.85
 -19  -3   4   69.16   33.02
 -19  -3   4    1.18   18.90
  19  -3  -4   35.20   36.27
  19   3  -4   49.28   33.09
 -19   3   4   -2.03   19.51
 -19   3   4   54.26   37.42
  19   3  -4   51.36   33.60
  19   3  -4   35.19   21.90
 -17  -3   4   39.27   31.48
  17  -3  -4   87.49   27.27
  17  -3  -4   52.59   42.81
 -17  -3   4   31.88   22.05
 -17  -3   4  108.62   36.50
  17  -3  -4   60.27   40.44
  17   3  -4   73.51   34.48
  17   3  -4   56.64   21.44
 -17   3   4   33.30   21.87
 -17   3   4   56.10   37.16
 -17   3   4  104.65   44.27
  17   3  -4  100.94   38.77
  15  -3  -4   87.07   42.24
 -15  -3   4   70.18   28.31
  15  -3  -4   54.34   38.01
  15  -3  -4   19.88   16.57
 -15  -3   4   34.72   28.68
  15   3  -4   20.22   26.92
  15   3  -4   61.05   31.13
 -15   3   4   26.40   30.85
 -15   3   4   21.51   17.13
  15   3  -4   -0.81   14.31
 -15   3   4   81.27   33.56
  13  -3  -4   19.14   15.57
  13  -3  -4   68.49   37.77
  13  -3  -4    2.19   23.90
 -13  -3   4    5.25   18.80
 -13  -3   4   27.30   22.77
 -13  -3   4    7.31   13.84
 -13   3   4   36.56   17.79
  13   3  -4   58.67   27.44
  13   3  -4   40.11   16.34
  13   3  -4   58.96   28.85
 -13   3   4   23.93   25.09
 -13   3   4   61.21   34.50
  11  -3  -4    4.47   11.91
  11  -3  -4    6.38   21.72
 -11  -3   4   12.68   18.66
  11  -3  -4   20.96   27.00
 -11  -3   4    7.58   11.86
 -11  -3   4   14.25   19.29
 -11   3   4    2.19   21.15
 -11   3   4    9.28   22.57
  11   3  -4   15.53   21.13
  11   3  -4   13.03   11.92
  11   3  -4   24.05   20.03
  -9  -3   4  211.44   46.19
  -9  -3   4  154.04   29.55
  -9  -3   4  150.27   40.36
   9  -3  -4  227.03   58.33
   9  -3  -4  165.99   32.71
   9  -3  -4  169.01   49.03
   9   3  -4  116.24   26.94
   9   3  -4  228.69   44.17
   9   3  -4  243.68   43.70
  -9   3   4  103.69   26.69
  -9   3   4  126.44   42.53
  -9   3   4  123.67   40.77
  -7  -3   4  142.83   38.57
   7  -3  -4  145.14   29.62
  -7  -3   4  124.24   34.47
   7  -3  -4  227.11   56.66
   7  -3  -4  223.81   55.71
  -7  -3   4   97.56   24.23
  -7   3   4  117.38   39.70
   7   3  -4  111.21   22.72
  -7   3   4  122.46   41.78
  -7   3   4  126.41   26.33
   7   3  -4  237.85   39.91
   5  -3  -4    9.84   21.63
  -5  -3   4   13.85   17.56
   5  -3  -4    4.17    9.64
   5  -3  -4    9.15   19.99
  -5  -3   4   20.09   17.34
  -5  -3   4   23.85   11.74
   5   3  -4   26.26   10.10
  -5   3   4    6.82   18.26
   5   3  -4   25.31   13.89
   5   3  -4   15.59   16.59
  -5   3   4    5.86    8.70
  -5   3   4   -0.79   15.97
   3  -3  -4  203.29   53.50
   3  -3  -4  221.69   58.14
   3  -3  -4  193.63   34.61
  -3  -3   4  146.91   35.72
  -3  -3   4  137.98   28.41
  -3  -3   4  105.02   36.51
  -3   3   4  138.30   26.23
   3   3  -4  136.52   24.24
   3   3  -4  203.23   40.34
  -3   3   4  105.05   39.56
   3   3  -4  211.91   29.59
  -3   3   4  235.55   51.53
  -1  -3   4  165.30   37.35
   1  -3  -4  144.64   29.76
  -1  -3   4  175.65   28.57
   1  -3  -4  165.08   50.60
   1  -3  -4  193.40   50.06
  -1  -3   4  139.38   38.32
  -1  -3   4  153.61   26.37
   1  -3  -4  165.67   29.64
  -1   3   4   91.29   36.10
  -1   3   4  190.31   47.33
   1   3  -4  183.74   25.16
   1   3  -4  199.00   36.18
   1   3  -4  139.93   26.49
  -1   3   4  154.70   28.15
   1   3  -4  236.48   29.70
   1  -3   4  238.96   40.91
  -1  -3  -4  270.79   45.31
   1  -3   4  325.67   43.67
   1  -3   4  268.38   49.84
  -1  -3  -4  263.34   44.84
  -1  -3  -4  371.48   69.27
  -1  -3  -4  256.54   64.74
  -1   3  -4  291.66   51.08
   1   3   4  310.69   53.93
  -1   3  -4  335.08   41.05
  -1   3  -4  355.91   43.88
   1   3   4  271.96   43.71
  -1   3  -4  248.41   41.77
   3  -3   4   99.91   24.20
  -3  -3  -4   61.54   30.61
  -3  -3  -4  116.76   28.68
   3  -3   4   78.46   28.96
  -3  -3  -4  104.36   26.12
   3  -3   4   85.61   20.53
  -3  -3  -4   90.21   31.01
   3  -3   4  117.30   24.59
   3   3   4   78.39   30.31
  -3   3  -4  127.27   20.60
  -3   3  -4   95.36   21.51
   3   3   4  129.64   27.54
  -3   3  -4  112.54   24.92
  -3   3  -4   59.52   27.00
  -5  -3  -4   25.70   21.09
   5  -3   4   56.74   26.34
  -5  -3  -4   89.39   23.93
  -5  -3  -4   85.00   25.14
  -5  -3  -4   37.22   23.43
   5  -3   4   80.85   18.91
   5  -3   4   65.98   19.84
   5  -3   4   80.32   22.41
   5   3   4   85.11   26.10
  -5   3  -4  112.25   22.39
   5   3   4   75.85   28.51
   5   3   4   83.58   23.78
  -5   3  -4   94.40   25.10
  -5   3  -4   69.01   18.66
   7  -3   4   64.88   22.90
   7  -3   4    6.43   16.79
  -7  -3  -4   39.00   18.86
   7  -3   4   41.99   14.04
  -7  -3  -4   34.94   18.47
   7  -3   4   25.87   14.95
  -7  -3  -4    2.54   17.09
  -7   3  -4   53.39   17.13
  -7   3  -4   26.80   19.33
  -7   3  -4   57.77   19.04
   7   3   4   37.02   18.81
  -7   3  -4   32.57   14.74
   7   3   4   47.26   21.14
   7   3   4   59.63   24.99
  -9  -3  -4  175.78   39.89
  -9  -3  -4  136.29   34.51
   9  -3   4  144.40   37.90
   9  -3   4  120.49   30.88
   9  -3   4  175.83   39.12
  -9  -3  -4   82.27   35.44
   9  -3   4  114.33   25.33
   9   3   4  130.13   37.95
  -9   3  -4  253.79   43.15
   9   3   4  134.89   34.78
   9   3   4  217.20   43.57
  -9   3  -4  177.19   31.43
  -9   3  -4  112.75   36.40
  -9   3  -4  152.89   32.53
 -11  -3  -4    4.24   15.24
 -11  -3  -4   15.65   21.16
  11  -3   4    7.82   18.69
  11  -3   4   25.25   21.26
  11  -3   4   17.37   12.04
 -11  -3  -4    0.30   13.52
  11  -3   4    2.41   15.88
  11   3   4   -7.32   14.52
  11   3   4   18.65   21.45
 -11   3  -4    6.91   13.58
  11   3   4   10.52   16.53
 -11   3  -4    0.86   17.99
 -11   3  -4   35.35   19.22
 -11   3  -4    5.50   13.17
  11   3   4    9.32    4.99
  13  -3   4   28.11   21.28
 -13  -3  -4   21.65   18.37
  13  -3   4   23.98   12.67
 -13  -3  -4   15.50   20.40
 -13  -3  -4   23.43   24.96
  13  -3   4   20.43   25.27
  13  -3   4   15.86   23.82
  13   3   4   25.37   24.04
 -13   3  -4   47.42   25.54
  13   3   4   66.51   27.79
 -13   3  -4   14.26   23.36
 -13   3  -4    1.77   12.55
 -13   3  -4   20.05   18.99
  13   3   4   14.00   21.11
  15  -3   4  129.00   40.48
  15  -3   4   78.66   33.56
 -15  -3  -4   68.25   35.28
 -15  -3  -4   89.03   28.98
 -15  -3  -4  139.00   41.94
  15  -3   4   53.71   17.67
  15  -3   4   68.91   30.98
 -15   3  -4   66.28   35.27
  15   3   4   96.09   36.51
  15   3   4   97.04   36.75
  15   3   4  154.48   44.98
 -15   3  -4   85.03   23.99
 -15   3  -4  159.39   42.83
 -15   3  -4  121.12   31.77
 -17  -3  -4   25.24   27.72
 -17  -3  -4   92.70   34.96
  17  -3   4   60.28   34.41
 -17  -3  -4   33.28   24.03
  17  -3   4   28.64   27.55
  17  -3   4   56.54   33.55
 -17   3  -4   53.13   19.42
 -17   3  -4  101.59   32.88
  17   3   4  119.91   39.06
 -17   3  -4  139.24   40.12
 -17   3  -4   23.39   29.14
  17   3   4   56.83   32.94
  17   3   4  122.03   42.45
  19  -3   4   19.21   31.67
  19  -3   4   37.54   29.32
 -19  -3  -4   41.18   23.69
 -19  -3  -4   10.96   23.95
  19   3   4   32.63   29.23
 -19   3  -4   35.15   17.41
 -19   3  -4  132.92   43.43
 -19   3  -4   40.89   28.23
  19   3   4   24.35   43.07
  19   3   4   17.72   29.51
  21  -3   4   21.62   36.91
 -21  -3  -4   14.85   26.66
  21  -3   4   49.57   32.54
  21   3   4   60.52   35.62
 -21   3  -4   21.22   32.81
  21   3   4   13.46   31.20
 -21   3  -4   16.77   14.57
 -21   3  -4  128.91   46.14
  23  -3   4   75.15   40.99
  23  -3   4   22.02   32.69
 -23  -3  -4    2.37   26.02
  23   3   4   41.88   40.84
 -23   3  -4   11.38   15.03
  23   3   4   22.77   31.98
 -23   3  -4   19.03   33.52
  25  -3   4    8.62   35.61
  25  -3   4   14.85   33.41
 -25  -3  -4    8.83   25.81
  25   3   4    0.28   30.14
  25   3   4   39.38   39.90
 -25   3  -4    5.15   32.20
 -25   3  -4   27.57   15.55
  27  -3   4   -8.00   32.48
  27  -3   4    8.05   32.39
 -27  -3  -4  -13.69   22.27
 -27   3  -4   12.01   14.94
  27   3   4   -0.78   38.62
 -27   3  -4  -33.61   26.20
  27   3   4   -0.08   30.89
  26  -4  -4   44.31   51.28
  26  -4  -4   22.48   44.28
 -26  -4   4   24.82   27.52
 -26   4   4   54.75   29.20
  26   4  -4   -1.31   33.66
  26   4  -4    6.12   36.91
 -26   4   4   50.17   22.31
  24  -4  -4  161.43   68.39
  24  -4  -4  169.74   65.48
 -24  -4   4   40.73   37.85
 -24  -4   4   88.66   35.47
  24   4  -4   75.92   41.39
 -24   4   4  115.68   35.98
  24   4  -4   80.02   40.61
  22  -4  -4  106.53   57.84
 -22  -4   4  138.01   39.28
  22  -4  -4  212.24   65.91
 -22  -4   4  105.28   43.33
  22   4  -4  171.38   51.69
 -22   4   4  108.44   36.33
  22   4  -4  165.79   49.98
  20  -4  -4  152.06   62.90
  20  -4  -4  242.64   71.01
 -20  -4   4  129.13   43.09
 -20  -4   4  128.29   37.99
  20   4  -4  120.42   44.44
 -20   4   4  210.80   46.14
  20   4  -4  172.93   36.51
  20   4  -4   91.64   38.15
 -18  -4   4  302.95   59.50
  18  -4  -4  542.88  100.77
  18  -4  -4  280.70   82.42
 -18  -4   4  264.02   65.96
 -18  -4   4  251.90   52.61
 -18   4   4  299.79   51.90
  18   4  -4  307.57   66.51
 -18   4   4  317.56   84.93
  18   4  -4  222.57   47.64
  18   4  -4  281.88   64.15
  16  -4  -4  299.24   54.14
  16  -4  -4  451.96  100.57
 -16  -4   4  310.66   71.32
  16  -4  -4  475.75   94.88
 -16  -4   4  292.44   63.61
 -16   4   4  300.39   55.00
  16   4  -4  293.22   51.90
 -16   4   4  238.67   74.54
  16   4  -4  454.16   68.65
 -16   4   4  430.61   93.78
  16   4  -4  357.50   63.00
  14  -4  -4  344.58   56.66
  14  -4  -4  522.52   85.34
  14  -4  -4  287.70   78.56
 -14  -4   4  311.16   63.60
 -14  -4   4  357.47   63.95
  14   4  -4  390.51   62.97
 -14   4   4  371.25   87.01
 -14   4   4  335.18   68.10
  14   4  -4  286.96   52.92
 -14   4   4  413.46   57.69
  14   4  -4  424.89   67.70
 -12  -4   4  476.54   68.79
 -12  -4   4  430.90   78.65
  12  -4  -4  718.44   98.57
 -12  -4   4  398.84   77.20
  12  -4  -4  537.52   72.07
  12   4  -4  584.97   79.48
 -12   4   4  381.25   81.40
 -12   4   4  451.40   84.71
  12   4  -4  439.07   67.89
  12   4  -4  549.43   75.67
 -10  -4   4  381.79   71.38
 -10  -4   4  500.02   64.39
  10  -4  -4  546.87   89.37
  10  -4  -4  450.85   85.60
  10  -4  -4  433.43   66.25
 -10  -4   4  465.96   75.33
 -10   4   4  324.34   85.05
  10   4  -4  416.77   62.56
  10   4  -4  580.40   74.03
 -10   4   4  513.17   79.96
  10   4  -4  389.56   66.56
  -8  -4   4  390.53   72.50
   8  -4  -4  532.26   85.82
   8  -4  -4  382.04   64.38
  -8  -4   4  532.98   63.59
   8  -4  -4  453.55   82.71
  -8  -4   4  362.83   68.37
   8   4  -4  483.47   64.61
   8   4  -4  591.66   72.02
  -8   4   4  323.49   72.80
  -8   4   4  357.93   86.06
   8   4  -4  451.57   61.28
  -8   4   4  451.17   63.19
   6  -4  -4  802.76  109.02
   6  -4  -4  750.13  123.59
  -6  -4   4  793.96  106.57
  -6  -4   4  725.74  116.30
  -6  -4   4  672.10  111.66
  -6  -4   4  829.32  106.66
   6   4  -4  841.53  104.39
  -6   4   4  706.54  118.04
  -6   4   4  979.64  108.22
   6   4  -4  812.34  103.53
  -4  -4   4 1058.15  129.79
   4  -4  -4 1035.42  149.84
  -4  -4   4  968.40  129.18
   4  -4  -4  878.52  144.19
  -4  -4   4  879.19  134.17
   4  -4  -4  966.21  131.60
   4   4  -4 1136.50  135.17
  -4   4   4 1017.94  129.80
  -4   4   4  864.63  138.90
   2  -4  -4  737.12  117.88
   2  -4  -4  772.21  105.33
  -2  -4   4  700.59  107.81
  -2  -4   4  788.56  103.15
  -2  -4   4  784.79  103.11
   2  -4  -4  809.82  107.17
   2  -4  -4  674.41  118.84
  -2   4   4  897.60  104.19
   2   4  -4  939.91  109.79
   2   4  -4  666.85  101.91
  -2   4   4  739.55  113.64
   0  -4   4  780.81  104.01
   0  -4  -4  809.27  118.41
   0  -4  -4  807.05  108.29
   0  -4   4  812.94  104.33
   0  -4  -4  794.70  106.94
   0  -4   4  792.86  109.99
   0   4   4  807.40  104.95
   0   4   4  874.80  115.03
   0   4  -4  674.28  102.68
  -2  -4  -4  648.97  101.09
   2  -4   4  769.30   98.60
   2  -4   4  672.79  104.36
  -2  -4  -4  793.33  103.13
   2  -4   4  727.14   98.65
  -2  -4  -4  594.67  107.93
  -2   4  -4  836.84   98.18
   2   4   4  779.93  100.14
  -2   4  -4  562.58  107.51
   2   4   4  919.01  110.29
   4  -4   4 1024.97  139.28
  -4  -4  -4 1048.89  142.27
  -4  -4  -4 1131.19  143.13
   4  -4   4  918.19  144.14
   4  -4   4 1011.34  137.46
  -4  -4  -4  817.78  146.00
   4  -4   4 1045.08  138.61
   4   4   4 1114.30  143.27
  -4   4  -4 1044.25  138.37
  -4   4  -4 1033.57  137.26
   4   4   4 1149.68  140.48
   4   4   4 1275.51  148.44
   6  -4   4  826.16  119.64
   6  -4   4  897.06  116.26
   6  -4   4  845.47  111.81
  -6  -4  -4  823.55  116.45
   6  -4   4  867.04  113.76
  -6  -4  -4  635.28  120.40
  -6  -4  -4  726.84  116.24
   6   4   4  925.75  121.09
  -6   4  -4  869.78  113.21
   6   4   4  821.86  115.01
   6   4   4  868.72  117.81
  -6   4  -4  931.76  113.23
  -8  -4  -4  624.87   85.30
  -8  -4  -4  573.74   92.01
   8  -4   4  562.40   81.78
   8  -4   4  641.22   86.51
   8  -4   4  561.61   78.78
   8  -4   4  560.42   86.44
  -8  -4  -4  685.45   88.31
   8   4   4  668.46   85.26
   8   4   4  605.35   86.26
  -8   4  -4  624.17   81.71
  -8   4  -4  494.40   78.38
  -8   4  -4  553.68   80.46
  -8   4  -4  469.85   79.44
 -10  -4  -4  420.12   88.54
  10  -4   4  492.26   65.58
  10  -4   4  471.20   69.60
 -10  -4  -4  471.45   71.70
  10  -4   4  526.60   76.13
  10  -4   4  423.53   72.62
 -10  -4  -4  447.42   73.29
  10   4   4  453.94   71.19
 -10   4  -4  499.24   66.95
 -10   4  -4  438.52   70.50
  10   4   4  413.84   72.79
 -10   4  -4  411.54   67.06
 -10   4  -4  483.55   68.92
  12  -4   4  458.60   68.57
 -12  -4  -4  417.87   70.24
  12  -4   4  537.49   74.02
 -12  -4  -4  389.06   66.80
 -12  -4  -4  396.40   84.98
  12  -4   4  421.48   71.75
 -12   4  -4  444.63   62.70
  12   4   4  566.18   75.81
 -12   4  -4  461.66   67.80
 -12   4  -4  382.83   68.22
  12   4   4  354.06   67.78
 -12   4  -4  326.36   65.04
  12   4   4  417.22   70.57
 -14  -4  -4  229.89   64.75
  14  -4   4  431.23   63.64
 -14  -4  -4  400.50   77.45
 -14  -4  -4  302.53   56.30
  14  -4   4  355.77   59.21
  14  -4   4  267.89   61.00
 -14   4  -4  371.86   58.14
 -14   4  -4  324.95   55.96
  14   4   4  478.81   66.52
 -14   4  -4  224.81   48.27
  14   4   4  396.58   72.93
  14   4   4  283.71   59.59
 -14   4  -4  263.47   59.38
  16  -4   4  442.54   84.20
  16  -4   4  552.82   84.39
  16  -4   4  458.49   80.38
 -16  -4  -4  557.38   79.81
 -16  -4  -4  473.49   87.89
 -16  -4  -4  539.63   83.97
  16   4   4  495.00   83.35
 -16   4  -4  457.06   78.39
  16   4   4  529.43   85.75
 -16   4  -4  400.84   78.60
  18  -4   4  204.89   48.93
 -18  -4  -4  180.57   45.00
  18  -4   4  173.75   50.09
 -18  -4  -4  168.12   55.42
 -18   4  -4  278.96   56.60
 -18   4  -4  151.79   34.25
  18   4   4  226.35   57.93
  18   4   4  236.51   57.24
 -18   4  -4  108.18   43.43
  20  -4   4  126.52   44.70
 -20  -4  -4  137.67   37.87
 -20  -4  -4   57.78   35.51
  20  -4   4  107.13   39.11
 -20   4  -4   90.80   36.88
 -20   4  -4   69.01   24.18
 -20   4  -4  170.08   52.64
  20   4   4  120.71   47.51
  20   4   4  127.67   45.06
 -22  -4  -4   90.95   41.60
  22  -4   4  116.96   43.20
  22  -4   4  132.80   51.55
  22   4   4  165.73   55.85
 -22   4  -4  225.76   58.28
 -22   4  -4  122.29   46.06
  22   4   4  169.63   53.05
 -22   4  -4  101.52   29.48
  24  -4   4  100.24   47.59
 -24  -4  -4   29.12   30.25
  24  -4   4   99.42   40.30
  24   4   4  123.17   49.93
 -24   4  -4   35.44   20.56
 -24   4  -4   18.76   32.47
  24   4   4   65.51   38.75
 -24   4  -4   28.22   73.36
  26  -4   4   18.29   34.48
  26  -4   4   36.40   47.36
 -26  -4  -4   -2.48   24.83
 -26   4  -4   24.18   17.85
  26   4   4   22.53   32.49
 -26   4  -4  -13.75   28.53
  26   4   4   20.80   36.47
  25  -5  -4   45.30   58.03
  25  -5  -4    2.60   40.82
 -25  -5   4   10.43   26.98
 -25  -5   4   10.32   32.30
 -25   5   4   11.67   25.01
  25   5  -4   38.62   37.99
  25   5  -4   26.35   36.64
 -25   5   4   17.58   21.02
 -23  -5   4   14.98   32.05
 -23  -5   4    5.88   27.44
  23  -5  -4   41.83   46.45
  23  -5  -4    0.82   42.07
 -23   5   4   14.65   19.12
 -23   5   4   19.60   24.56
  23   5  -4   18.61   32.90
  23   5  -4   32.26   23.67
  23   5  -4   64.38   34.89
  21  -5  -4   61.93   43.62
 -21  -5   4   43.38   36.45
  21  -5  -4   19.03   41.83
 -21  -5   4    3.26   23.95
  21   5  -4   50.66   35.04
  21   5  -4    9.45   29.80
 -21   5   4   17.18   23.04
  21   5  -4   24.75   21.60
  19  -5  -4   84.68   56.95
 -19  -5   4   27.40   23.64
  19  -5  -4   98.53   49.24
 -19  -5   4   36.57   32.53
  19   5  -4   48.58   20.49
 -19   5   4   57.23   47.21
  19   5  -4   34.72   28.05
  19   5  -4   29.29   30.17
 -19   5   4   25.71   22.33
 -17  -5   4   61.57   37.92
 -17  -5   4   63.61   27.45
  17  -5  -4  107.77   50.93
 -17  -5   4  145.87   39.23
  17  -5  -4   62.96   49.78
  17   5  -4   94.16   35.79
 -17   5   4   61.49   25.77
 -17   5   4   99.71   46.12
  17   5  -4   67.50   21.73
  17   5  -4   72.53   31.37
  15  -5  -4   41.44   20.10
 -15  -5   4   24.32   21.13
 -15  -5   4   46.10   25.44
  15  -5  -4   19.49   35.76
  15  -5  -4   87.36   43.97
 -15  -5   4  116.54   38.28
 -15   5   4   46.88   39.80
  15   5  -4   33.19   17.39
 -15   5   4   76.63   43.66
  15   5  -4   62.93   30.18
 -15   5   4   17.66   19.23
  15   5  -4   40.45   22.48
  13  -5  -4    6.66   15.45
  13  -5  -4   26.37   35.37
  13  -5  -4   53.02   36.70
 -13  -5   4   25.84   25.86
 -13  -5   4   40.57   13.26
 -13  -5   4   58.77   27.51
 -13   5   4   32.32   18.23
 -13   5   4  124.91   42.94
  13   5  -4   39.09   25.84
 -13   5   4   83.49   35.03
  13   5  -4   27.33   14.36
  13   5  -4   30.64   17.13
 -11  -5   4  171.78   41.94
 -11  -5   4  131.06   39.03
  11  -5  -4  187.78   62.25
 -11  -5   4  107.28   26.86
  11  -5  -4  121.14   30.04
 -11  -5   4   89.33   23.29
  11  -5  -4  252.88   60.12
 -11   5   4  110.62   28.34
 -11   5   4  130.99   47.01
  11   5  -4  160.45   36.95
  11   5  -4  110.38   21.85
 -11   5   4  161.81   50.21
  11   5  -4  131.75   24.22
  -9  -5   4   93.96   30.44
   9  -5  -4  110.44   49.83
   9  -5  -4  151.28   49.26
  -9  -5   4   78.91   22.82
  -9  -5   4  117.24   24.67
   9  -5  -4  120.62   28.97
  -9  -5   4  129.52   36.28
  -9   5   4  117.50   42.37
  -9   5   4  189.73   48.33
   9   5  -4  191.17   37.11
  -9   5   4  100.33   25.94
  -7  -5   4   81.39   29.46
  -7  -5   4  122.09   32.13
   7  -5  -4   97.66   42.09
  -7  -5   4   59.24   18.44
   7  -5  -4  118.19   46.29
   7  -5  -4   64.60   22.26
  -7  -5   4   76.00   20.14
  -7   5   4   63.53   34.17
   7   5  -4  151.31   31.10
  -7   5   4  115.12   37.38
  -5  -5   4   12.16   16.92
   5  -5  -4    5.97   12.06
  -5  -5   4   16.51   11.61
   5  -5  -4   29.75   27.66
  -5  -5   4   24.42   12.59
  -5  -5   4   12.31   14.85
   5  -5  -4   32.87   30.24
  -5   5   4   20.35   10.94
  -5   5   4   14.76   22.28
  -5   5   4   12.33   21.81
   3  -5  -4   14.99   24.61
   3  -5  -4   38.12   17.13
   3  -5  -4   41.42   30.23
  -3  -5   4   29.28   13.50
  -3  -5   4   27.37   12.95
  -3  -5   4   44.35   19.00
  -3  -5   4    6.32   13.86
  -3   5   4   30.41   24.96
   3   5  -4   23.49   10.28
  -3   5   4   79.58   27.82
  -3   5   4   39.38   13.33
   3   5  -4   66.38   18.90
  -1  -5   4   82.45   20.18
   1  -5  -4   93.87   36.87
  -1  -5   4  101.81   27.69
   1  -5  -4   83.33   39.69
   1  -5  -4   74.86   23.74
   1  -5  -4   71.07   22.92
  -1  -5   4   93.91   19.46
  -1   5   4  126.54   34.34
   1   5  -4   55.45   15.34
   1   5  -4  128.46   24.64
  -1   5   4   51.88   27.44
  -1   5   4   80.21   19.76
  -1  -5  -4   41.74   18.17
  -1  -5  -4   16.14   22.84
  -1  -5  -4   43.14   28.21
   1  -5   4   50.11   14.99
   1  -5   4   32.54   13.09
  -1  -5  -4   20.56   14.69
   1  -5   4   46.53   21.00
   1   5   4   16.72   11.72
  -1   5  -4   16.22    8.92
  -1   5  -4   39.87   16.01
   1   5   4   49.76   22.16
  -3  -5  -4   -4.93   14.85
  -3  -5  -4   14.96   14.95
  -3  -5  -4    9.88   19.41
   3  -5   4    0.99   11.45
   3  -5   4   14.03   11.47
  -3  -5  -4    8.42   13.62
   3  -5   4  -11.62   13.96
  -3   5  -4    8.88    9.49
   3   5   4   16.09   11.77
  -3   5  -4   19.66   14.95
   3   5   4    4.74   17.26
  -3   5  -4   13.52   15.35
   5  -5   4   54.14   19.85
  -5  -5  -4   62.98   23.14
   5  -5   4   68.19   27.44
  -5  -5  -4   66.42   30.14
  -5  -5  -4   27.37   18.85
   5  -5   4   44.54   16.71
  -5  -5  -4   49.68   21.59
  -5   5  -4   44.08   19.42
   5   5   4   50.03   22.31
   5   5   4   46.72   18.47
   5   5   4   55.69   23.90
  -5   5  -4   57.14   16.40
   7  -5   4   25.79   19.99
   7  -5   4   40.48   20.05
  -7  -5  -4   10.00   17.65
  -7  -5  -4   16.67   20.27
  -7  -5  -4   17.03   19.57
  -7  -5  -4   20.97   16.98
   7  -5   4   14.07   13.53
  -7   5  -4   27.27   15.30
   7   5   4   38.60   22.07
   7   5   4   21.29   17.35
  -7   5  -4   18.68   17.04
   7   5   4   39.47   17.59
  -7   5  -4   16.87   17.17
   9  -5   4   61.74   21.72
   9  -5   4   73.13   29.21
  -9  -5  -4   80.01   27.08
  -9  -5  -4   62.30   32.75
  -9  -5  -4   75.75   29.18
   9  -5   4   88.23   29.80
   9   5   4   60.95   26.00
   9   5   4   81.53   25.34
  -9   5  -4   73.03   22.63
  -9   5  -4   81.40   24.73
   9   5   4   60.14   13.78
   9   5   4   91.47   30.43
  11  -5   4   45.44   22.09
 -11  -5  -4   50.02   31.15
  11  -5   4   49.95   27.64
 -11  -5  -4   62.02   24.75
  11  -5   4   56.13   27.65
 -11  -5  -4   48.95   25.15
  11   5   4   55.69   25.43
  11   5   4   47.34    8.99
 -11   5  -4   52.05   21.69
  11   5   4   36.18   22.05
  11   5   4   35.32   26.47
 -11   5  -4   61.45   23.99
  13  -5   4    2.14   22.99
 -13  -5  -4    8.21   20.59
  13  -5   4    4.59   19.11
  13  -5   4    9.68   25.65
 -13  -5  -4   -3.74   15.24
 -13  -5  -4    3.23   19.92
 -13   5  -4   28.60   22.24
 -13   5  -4   11.38   17.98
 -13   5  -4   23.80   17.91
  13   5   4    9.48   19.23
  13   5   4    5.31   22.65
 -13   5  -4   27.31   18.57
  13   5   4   10.76   21.47
 -15  -5  -4    7.58   20.53
  15  -5   4   41.96   29.83
 -15  -5  -4   53.44   24.62
  15  -5   4   26.90   24.67
  15  -5   4   55.91   35.47
 -15  -5  -4   15.60   26.67
 -15   5  -4  101.03   28.50
  15   5   4   63.96   32.67
  15   5   4   24.78   27.20
  15   5   4   41.23   25.83
 -15   5  -4    5.80   21.24
 -15   5  -4   23.51   18.44
 -15   5  -4   15.44   22.19
  17  -5   4   28.82   32.21
 -17  -5  -4   31.24   31.14
 -17  -5  -4   35.06   23.96
  17  -5   4  111.03   36.94
  17  -5   4   25.02   26.50
  17   5   4   42.21   32.03
 -17   5  -4   10.86   19.31
 -17   5  -4   49.67   31.89
  17   5   4   33.17   31.80
  17   5   4    5.25   23.28
 -17   5  -4    7.02   22.54
 -19  -5  -4    5.88   21.31
  19  -5   4   12.69   31.44
  19  -5   4   15.30   27.55
 -19  -5  -4   28.18   27.83
 -19   5  -4   13.37   25.99
  19   5   4   16.56   26.88
 -19   5  -4   10.23   30.25
  19   5   4   38.21   31.61
  19   5   4   14.11   25.39
 -19   5  -4    7.74   17.74
 -21  -5  -4  -12.06   19.08
 -21  -5  -4   34.19   27.51
  21  -5   4   -2.10   27.01
  21  -5   4  -13.57   31.27
 -21   5  -4   15.99   36.39
 -21   5  -4   -5.24   22.37
  21   5   4   -9.16   24.40
 -21   5  -4    6.13   18.19
  21   5   4    2.07   27.31
  23  -5   4   23.59   41.70
 -23  -5  -4    4.16   24.17
  23  -5   4    4.63   30.96
 -23   5  -4   -3.46   27.16
  23   5   4    2.20   29.08
 -23   5  -4   17.29   19.09
  23   5   4   21.59   31.88
 -23   5  -4   35.74   43.57
  25  -5   4    7.11   31.33
  25  -5   4  -11.12   36.20
 -25  -5  -4   16.87   29.88
  25   5   4   15.22   31.03
  25   5   4   -8.17   31.56
 -25   5  -4    4.39   34.62
 -25   5  -4    0.60   28.23
 -25   5  -4   12.57   17.66
 -24  -6   4   36.11   39.79
  24  -6  -4   60.80   50.13
 -24  -6   4   51.81   34.56
  24  -6  -4   54.91   58.97
  24   6  -4   42.86   37.28
 -24   6   4   65.36   24.25
 -24   6   4   69.35   30.51
  24   6  -4   -4.77   26.44
 -22  -6   4  110.75   36.54
  22  -6  -4  170.17   63.20
 -22  -6   4  156.23   49.27
  22  -6  -4  151.32   71.21
  22   6  -4   68.19   38.00
 -22   6   4   31.80   21.61
 -22   6   4   96.52   33.32
  22   6  -4   72.97   30.14
  20  -6  -4  172.95   71.92
 -20  -6   4  129.97   36.76
  20  -6  -4  133.51   55.59
 -20  -6   4  152.00   44.58
 -20   6   4  109.30   35.26
 -20   6   4  161.58   59.14
  20   6  -4   94.15   37.55
 -20   6   4  111.19   32.17
  20   6  -4   87.31   26.91
  20   6  -4  131.73   34.77
  18  -6  -4  293.84   73.60
 -18  -6   4  136.87   38.35
 -18  -6   4  172.42   51.27
  18  -6  -4  247.97   76.74
  18   6  -4  138.47   30.71
  18   6  -4  167.40   37.04
 -18   6   4  242.14   64.50
 -18   6   4  132.51   34.17
 -18   6   4  186.63   41.94
  18   6  -4  179.26   45.96
 -16  -6   4  292.01   56.00
  16  -6  -4  236.03   82.13
 -16  -6   4  270.95   51.16
 -16  -6   4  177.52   58.46
  16  -6  -4  414.30   86.12
  16   6  -4  292.90   58.19
 -16   6   4  308.11   74.08
 -16   6   4  244.98   48.11
  16   6  -4  280.08   41.57
  16   6  -4  232.76   43.48
  14  -6  -4  459.20   84.53
 -14  -6   4  379.16   58.24
 -14  -6   4  299.17   63.72
 -14  -6   4  430.75   69.71
  14  -6  -4  322.84   93.55
  14  -6  -4  353.41   58.01
 -14   6   4  378.29   82.04
 -14   6   4  300.44   56.28
  12  -6  -4  429.41   62.40
 -12  -6   4  305.21   66.05
  12  -6  -4  629.96  118.39
 -12  -6   4  339.92   68.93
 -12   6   4  341.25   85.20
 -12   6   4  523.51   96.90
  12   6  -4  414.17   65.66
 -10  -6   4  458.23   90.69
  10  -6  -4  544.34   86.31
 -10  -6   4  514.08   90.95
  10  -6  -4  789.88  112.79
 -10  -6   4  644.51   83.69
  10  -6  -4  585.48  109.23
  10   6  -4  699.10   89.23
 -10   6   4  697.68   85.63
 -10   6   4  522.27   93.91
   8  -6  -4  686.92  102.36
   8  -6  -4  686.98  103.75
  -8  -6   4  562.89   73.90
   8  -6  -4  543.64   78.01
  -8  -6   4  482.14   79.68
  -8   6   4  510.07   85.24
  -8   6   4  340.08   98.13
   6  -6  -4  859.36  115.68
  -6  -6   4  593.23   91.73
  -6  -6   4  698.36   86.65
   6  -6  -4  663.45  111.21
   6  -6  -4  587.26   90.03
  -6   6   4  443.74  113.85
  -6   6   4  678.00   97.55
   4  -6  -4  679.87   94.54
   4  -6  -4  686.16  112.53
  -4  -6   4  694.24   95.16
  -4  -6   4  758.32   90.44
   4  -6  -4  531.62  108.90
   4   6  -4  642.28   88.78
  -4   6   4  674.92   99.41
   2  -6  -4  712.34   95.28
   2  -6  -4  631.43  110.40
  -2  -6   4  629.04   90.03
   2  -6  -4  776.98  112.00
  -2  -6   4  632.61   94.43
   2  -6  -4  763.32   97.77
  -2   6   4  802.75   99.85
   2   6  -4  630.76   87.63
   0  -6   4  688.80   90.17
   0  -6  -4  526.59  103.40
   0  -6  -4  486.17  104.84
   0  -6   4  717.87   95.46
   0  -6  -4  641.58   94.84
   0  -6  -4  700.28   97.28
   0   6   4  787.42   98.89
   0   6   4  764.59   91.08
  -2  -6  -4  651.01  100.45
  -2  -6  -4  612.30   98.95
   2  -6   4  796.03   95.36
   2  -6   4  813.27  101.65
  -2  -6  -4  553.40  106.16
   2   6   4  666.11   94.68
  -2   6  -4  824.02   99.50
   2   6   4  735.54  101.14
   4  -6   4  612.90   96.57
  -4  -6  -4  536.11  101.07
  -4  -6  -4  771.56   97.56
   4  -6   4  669.54   91.62
  -4  -6  -4  622.30   95.42
  -4   6  -4  614.78   93.08
  -4   6  -4  697.51   87.98
   4   6   4  723.30   90.99
  -6  -6  -4  744.44   99.89
   6  -6   4  750.29   96.98
  -6  -6  -4  613.46  105.74
   6  -6   4  625.21   92.67
  -6  -6  -4  658.94  100.04
   6  -6   4  614.76   98.93
  -6   6  -4  622.03   96.13
  -6   6  -4  676.93   92.26
   6   6   4  704.26   94.29
   6   6   4  886.35  101.15
  -8  -6  -4  811.45  109.82
  -8  -6  -4  634.16  104.49
   8  -6   4  731.30  100.88
   8  -6   4  776.43  105.46
  -8  -6  -4  559.55  110.41
   8  -6   4  735.16  105.83
   8   6   4  697.46  101.62
  -8   6  -4  647.33  102.58
   8   6   4  741.22  107.21
   8   6   4  877.26   96.86
  -8   6  -4  770.45  101.17
  10  -6   4  601.47   92.55
  10  -6   4  747.32   99.33
  10  -6   4  606.72   96.70
 -10  -6  -4  710.45   98.20
 -10  -6  -4  679.95   99.79
 -10  -6  -4  461.39  101.97
 -10   6  -4  619.47   93.05
  10   6   4  610.50   97.86
  10   6   4  711.28   94.59
 -10   6  -4  639.79   94.00
  10   6   4  727.84   85.20
 -12  -6  -4  331.13   61.76
 -12  -6  -4  432.86   65.50
 -12  -6  -4  361.45   82.33
  12  -6   4  407.49   66.17
  12  -6   4  387.59   60.23
  12  -6   4  512.66   70.18
 -12   6  -4  395.59   61.70
  12   6   4  266.93   57.63
  12   6   4  291.75   62.90
 -12   6  -4  342.11   58.60
 -14  -6  -4  343.33   82.97
 -14  -6  -4  386.59   83.68
 -14  -6  -4  343.62   59.89
  14  -6   4  297.88   67.87
  14  -6   4  296.59   58.47
 -14   6  -4  384.78   62.02
  14   6   4  315.07   63.05
  14   6   4  297.46   58.00
  16  -6   4  261.52   65.54
 -16  -6  -4  413.56   62.55
 -16  -6  -4  264.57   71.46
  16  -6   4  228.95   56.43
 -16   6  -4  260.33   51.49
  16   6   4  347.46   65.01
  16   6   4  345.47   58.83
  18  -6   4  122.28   45.00
  18  -6   4  102.06   36.84
 -18  -6  -4  168.52   40.87
 -18  -6  -4  139.01   46.05
 -18   6  -4   80.26   27.61
  18   6   4  126.17   41.63
 -18   6  -4  120.62   30.68
  18   6   4  115.14   40.32
 -18   6  -4   95.30   31.56
  20  -6   4   81.82   35.90
  20  -6   4   82.25   40.96
 -20  -6  -4   12.71   30.15
 -20  -6  -4  133.09   36.13
  20   6   4   81.42   36.36
 -20   6  -4   83.17   28.98
 -20   6  -4   61.04   28.31
  20   6   4   88.78   40.90
 -22  -6  -4   83.66   38.53
  22  -6   4   78.81   41.25
  22  -6   4   33.22   33.06
  22   6   4   96.35   37.93
 -22   6  -4   39.57   25.29
 -22   6  -4   21.21   26.85
  22   6   4   56.63   36.33
 -22   6  -4    0.78   19.70
  24  -6   4   55.23   44.15
 -24  -6  -4   60.85   33.96
  24  -6   4   60.31   37.03
 -24   6  -4    0.09   24.08
 -24   6  -4   19.21   22.43
  24   6   4  100.10   39.07
 -24   6  -4   26.07   22.62
  24   6   4   93.38   41.09
 -23  -7   4   30.13   31.72
 -23   7   4    5.13   25.88
 -21  -7   4  -17.49   23.70
 -21  -7   4    1.22   25.24
  21  -7  -4   43.29   43.32
  21  -7  -4  -33.64   37.21
  21   7  -4    2.39    8.15
  21   7  -4    2.97    7.48
 -21   7   4   10.96   22.01
  21   7  -4  -25.29   11.51
 -21   7   4    2.11   18.79
 -21   7   4   21.83   40.32
 -19  -7   4   29.74   25.65
  19  -7  -4   72.53   58.37
  19  -7  -4   43.86   41.92
 -19  -7   4    9.71   27.24
  19   7  -4   52.33   28.21
 -19   7   4   13.69   41.09
 -19   7   4    1.44   19.81
 -19   7   4    8.56   19.56
  17  -7  -4   50.91   38.36
 -17  -7   4    3.27   21.20
  17  -7  -4  102.08   55.34
 -17  -7   4   18.93   27.50
 -17   7   4   -7.01   17.33
 -17   7   4    3.81   18.38
  17   7  -4   29.11   26.10
 -17   7   4   29.46   39.40
 -15  -7   4   22.11   20.57
 -15  -7   4    3.93   27.41
 -15  -7   4    4.58   20.70
  15  -7  -4   15.44   40.48
  15  -7  -4   21.85   33.72
 -15   7   4    1.72   18.53
 -15   7   4   -3.83   16.04
 -15   7   4  -11.50   27.09
  15   7  -4   13.84   22.97
  13  -7  -4   24.53   32.87
 -13  -7   4   19.80   29.18
  13  -7  -4   12.64   16.25
 -13  -7   4    8.44   18.88
 -13  -7   4   16.10   23.76
  13  -7  -4    7.85   37.56
 -13   7   4   -2.46   15.74
 -13   7   4   29.57   30.30
  13   7  -4   12.65   19.75
 -13   7   4    1.62   17.26
 -11  -7   4   71.73   27.48
  11  -7  -4   66.61   23.21
 -11  -7   4   88.61   32.34
  11  -7  -4   78.95   41.42
  11  -7  -4   91.41   48.33
 -11   7   4   83.06   35.29
  11   7  -4   26.92   25.79
 -11   7   4   46.23   47.22
 -11   7   4   35.06   18.96
  -9  -7   4  101.31   30.63
   9  -7  -4   82.73   48.33
   9  -7  -4   60.29   35.84
  -9  -7   4   32.65   16.30
  -9  -7   4   35.52   21.01
   9  -7  -4   16.80   16.91
  -9   7   4   47.89   17.31
   9   7  -4   37.78   19.59
  -9   7   4   54.98   27.55
  -9   7   4    1.39   14.97
  -9   7   4   48.12   35.25
   7  -7  -4    1.42   14.47
  -7  -7   4   -0.56   14.35
   7  -7  -4   -7.25   24.94
   7  -7  -4   -2.63   22.50
  -7  -7   4    7.58   11.56
  -7  -7   4   -0.75   15.36
  -7   7   4    8.78   19.49
  -7   7   4   -8.29   20.94
  -7   7   4   -0.74   13.12
   7   7  -4   14.88   12.76
  -7   7   4    1.24   11.35
   5  -7  -4   12.70   25.94
   5  -7  -4    4.41   28.15
  -5  -7   4   13.53   13.84
   5  -7  -4    1.18   14.29
  -5  -7   4   32.44   16.96
  -5  -7   4   16.38   11.88
  -5   7   4   19.64   11.49
  -5   7   4    3.90   15.77
  -5   7   4    6.48   15.14
  -5   7   4   -6.04   18.53
   3  -7  -4   18.76   17.18
   3  -7  -4   54.78   32.64
  -3  -7   4   41.54   13.58
  -3  -7   4   63.51   21.38
   3  -7  -4   33.69   33.99
   3  -7  -4   48.03   20.05
  -3   7   4   38.31   17.47
  -3   7   4   19.51   27.86
  -3   7   4    9.24   14.20
   1  -7  -4   79.85   23.52
   1  -7  -4   60.85   35.13
   1  -7  -4   52.98   22.02
  -1  -7   4   74.60   22.24
   1  -7  -4   55.56   35.04
  -1  -7   4   40.98   14.46
  -1   7   4   52.77   19.28
  -1   7   4   28.17   17.20
   1  -7   4   26.81   17.20
  -1  -7  -4    5.00   14.66
  -1  -7  -4    7.58   20.25
   1  -7   4   22.42   11.57
  -1  -7  -4    5.69   14.99
  -1  -7  -4   25.98   25.10
  -1   7  -4    0.62   17.87
   1   7   4    5.47    8.36
   1   7   4    1.64   12.51
   1   7   4    3.86   12.74
  -3  -7  -4    8.33   20.72
  -3  -7  -4   -7.06   15.55
   3  -7   4   -8.14   16.58
   3  -7   4   20.71   14.00
  -3  -7  -4   18.27   18.32
  -3  -7  -4   36.45   19.84
   3   7   4    5.37   12.34
   3   7   4   12.52   12.26
  -3   7  -4   24.66   21.17
   3   7   4   11.07    9.56
  -5  -7  -4   61.40   24.97
  -5  -7  -4   51.27   29.31
   5  -7   4   44.43   23.25
  -5  -7  -4  135.77   35.44
   5  -7   4   91.80   23.43
  -5  -7  -4   58.03   30.81
   5   7   4   41.79   15.03
  -5   7  -4   58.01   24.73
   5   7   4   57.70   20.61
   5   7   4   31.40   15.41
  -7  -7  -4   31.58   20.61
  -7  -7  -4    9.26   20.17
  -7  -7  -4    8.89   24.02
   7  -7   4   24.37   14.71
   7  -7   4   21.91   21.01
   7  -7   4   34.51   20.29
  -7  -7  -4   54.10   26.18
  -7   7  -4   35.07   13.54
   7   7   4   31.44   18.47
  -7   7  -4   23.55   21.47
  -7   7  -4   20.78   16.18
   7   7   4   16.03   12.20
   7   7   4   17.15   12.82
   9  -7   4   92.63   27.79
   9  -7   4   29.29   17.35
  -9  -7  -4   36.37   27.50
  -9  -7  -4   27.11   20.57
   9  -7   4   73.78   27.40
  -9  -7  -4   13.59   22.73
  -9  -7  -4    3.69   24.08
  -9   7  -4   32.68   20.78
  -9   7  -4   32.67   23.78
   9   7   4   49.26   25.10
   9   7   4   36.26   17.39
  -9   7  -4   40.65   18.65
   9   7   4   24.75   20.70
   9   7   4   34.50   12.38
 -11  -7  -4   15.28   27.10
  11  -7   4   55.74   28.86
 -11  -7  -4   53.47   25.58
  11  -7   4   71.79   28.84
 -11  -7  -4   14.23   24.99
 -11  -7  -4   96.39   34.23
  11  -7   4   47.67   21.97
 -11   7  -4  101.09   26.99
  11   7   4   31.70   24.06
 -11   7  -4   86.16   29.76
  11   7   4   40.37   20.35
  11   7   4   49.10   23.35
  11   7   4   46.52   12.46
 -13  -7  -4   12.37   28.59
  13  -7   4   50.36   36.22
  13  -7   4   22.86   21.54
  13  -7   4   20.75   27.87
 -13  -7  -4   46.87   25.25
 -13   7  -4   24.47   24.41
  13   7   4   28.72   20.82
 -13   7  -4  102.40   28.33
  13   7   4   34.28   23.54
  13   7   4    0.04   20.38
  15  -7   4    5.83   28.76
 -15  -7  -4   10.59   31.47
  15  -7   4    6.44   35.52
 -15  -7  -4    5.68   21.63
  15  -7   4   21.92   23.85
  15   7   4   27.80   26.58
 -15   7  -4   24.59   23.52
  15   7   4   26.35   23.67
  15   7   4   30.77   22.90
 -15   7  -4  -25.90   32.84
  17  -7   4   48.47   36.83
 -17  -7  -4   -4.98   29.23
  17  -7   4   12.34   24.82
  17  -7   4   18.21   33.84
 -17  -7  -4   29.52   25.46
  17   7   4   18.76   22.91
  17   7   4    3.79   24.05
  17   7   4   16.77   23.69
 -17   7  -4    6.23   23.58
 -19  -7  -4   30.19   34.87
 -19  -7  -4    6.06   24.34
  19  -7   4   20.27   35.74
  19  -7   4   -5.05   24.61
  19   7   4   10.11   22.71
  19   7   4   12.69   27.73
  19   7   4   19.24   24.46
 -19   7  -4    0.56   22.57
  21  -7   4    0.75   29.31
 -21  -7  -4  -17.02   20.70
 -21  -7  -4   22.69   22.80
  21  -7   4  -35.43   29.82
  21   7   4   10.24   23.04
 -21   7  -4   -4.23   21.41
  21   7   4   10.97   29.50
 -20  -8   4   27.84   34.84
  20  -8  -4  102.29   49.45
 -20  -8   4   71.54   33.19
  20  -8  -4  174.80   73.94
 -20   8   4  127.61   29.06
 -20   8   4   28.66   24.06
 -20   8   4    1.74   26.05
 -18  -8   4   88.12   34.89
 -18  -8   4  144.13   48.17
  18  -8  -4  137.17   56.22
  18  -8  -4   99.78   66.30
 -18   8   4  171.48   35.71
 -18   8   4  108.48   34.37
 -16  -8   4   79.33   32.21
 -16  -8   4   65.61   49.62
  16  -8  -4  194.47   61.46
 -16  -8   4  114.29   40.78
  16  -8  -4  115.38   63.08
 -16   8   4  190.99   34.95
 -16   8   4  138.05   44.33
 -16   8   4  113.46   32.38
  14  -8  -4  177.07   59.26
  14  -8  -4  234.32   75.19
 -14  -8   4  156.97   48.74
 -14  -8   4  120.48   34.41
 -14  -8   4  120.04   40.73
 -14   8   4  191.37   44.08
 -14   8   4  155.83   31.98
 -14   8   4   94.23   31.29
 -12  -8   4  134.30   44.40
  12  -8  -4  251.05   64.37
  12  -8  -4  371.14   92.26
 -12  -8   4  203.89   41.39
 -12  -8   4  209.14   54.32
  12  -8  -4  283.68   43.23
 -12   8   4  183.28   42.35
 -12   8   4  247.40   45.63
 -12   8   4  199.47   36.26
  12   8  -4  182.35   46.48
  10  -8  -4  346.65   86.75
 -10  -8   4  242.72   55.20
 -10  -8   4  170.07   48.71
  10  -8  -4  329.43   48.37
  10  -8  -4  367.99   76.00
 -10   8   4  220.95   44.32
 -10   8   4  260.54   41.36
 -10   8   4  292.44   39.78
  10   8  -4  202.97   40.73
   8  -8  -4  337.06   74.54
   8  -8  -4  289.38   51.35
  -8  -8   4  305.32   54.02
   8  -8  -4  391.12   92.30
  -8  -8   4  280.84   45.62
  -8   8   4  287.71   49.23
   6  -8  -4  302.08   53.81
  -6  -8   4  286.35   45.78
   6  -8  -4  323.78   82.94
   6  -8  -4  225.85   62.46
   6  -8  -4  203.98   45.62
  -6  -8   4  280.37   38.46
  -6   8   4  168.29   41.96
  -4  -8   4  368.47   55.58
   4  -8  -4  356.99   58.68
   4  -8  -4  465.69   99.47
  -4  -8   4  319.07   49.55
   4  -8  -4  373.61   74.69
   4  -8  -4  346.99   59.47
  -4   8   4  384.87   55.45
   2  -8  -4  443.16   83.68
   2  -8  -4  479.90   85.01
   2  -8  -4  483.89   71.30
   2  -8  -4  475.05   69.42
  -2  -8   4  328.11   63.47
  -2   8   4  523.75   66.53
   0  -8  -4  366.69   58.30
   0  -8  -4  340.05   70.84
   0  -8  -4  291.45   76.76
   0  -8  -4  372.40   59.56
   0   8   4  351.40   53.98
  -2  -8  -4  313.40   57.66
   2  -8   4  413.26   56.62
  -2  -8  -4  256.30   72.68
  -2  -8  -4  306.93   57.28
   2  -8   4  423.13   50.11
  -2  -8  -4  234.88   71.18
   2   8   4  280.58   51.61
  -2   8  -4  433.07   60.08
   4  -8   4  317.22   54.44
  -4  -8  -4  371.81   59.23
  -4  -8  -4  280.35   56.42
   4  -8   4  345.05   51.09
  -4  -8  -4  304.11   73.43
  -4   8  -4  341.47   58.31
   4   8   4  376.37   51.78
   6  -8   4  265.33   53.56
  -6  -8  -4  434.98   62.84
  -6  -8  -4  297.74   73.29
  -6  -8  -4  339.58   57.84
   6  -8   4  272.06   52.43
   6   8   4  330.42   45.41
   6   8   4  376.59   47.40
   6   8   4  320.03   49.42
   8  -8   4  352.65   56.02
   8  -8   4  380.90   56.17
  -8  -8  -4  344.35   74.45
  -8  -8  -4  330.04   61.31
  -8  -8  -4  307.58   57.05
  -8   8  -4  206.81   55.43
   8   8   4  348.96   47.38
   8   8   4  299.96   45.04
   8   8   4  286.81   46.24
  10  -8   4  245.83   52.96
 -10  -8  -4  334.46   53.61
 -10  -8  -4  258.68   49.71
  10  -8   4  277.77   42.35
 -10  -8  -4  208.81   60.55
 -10   8  -4  256.05   39.84
  10   8   4  228.94   35.92
  10   8   4  209.24   51.01
  10   8   4  247.68   39.11
 -10   8  -4  197.51   48.05
  10   8   4  173.79   36.94
  12  -8   4  277.32   54.90
  12  -8   4  211.43   49.43
 -12  -8  -4  226.63   48.15
 -12  -8  -4  145.46   50.41
  12  -8   4  137.55   34.78
 -12   8  -4  162.03   39.68
 -12   8  -4  121.53   41.52
  12   8   4  190.52   26.52
  12   8   4  124.45   41.32
  12   8   4  157.81   33.63
 -14  -8  -4  183.99   43.20
  14  -8   4  318.87   54.51
  14  -8   4   90.61   32.06
  14  -8   4  201.86   49.17
 -14  -8  -4  101.70   44.13
  14   8   4  147.64   41.45
 -14   8  -4  170.75   41.54
  14   8   4  143.95   33.66
 -14   8  -4   82.12   36.62
  16  -8   4  100.06   44.53
 -16  -8  -4   76.39   42.61
  16  -8   4   69.80   31.51
  16   8   4  114.15   37.48
 -16   8  -4   56.18   33.63
  16   8   4  136.30   32.97
  18  -8   4   63.92   44.18
 -18  -8  -4  137.40   37.06
  18  -8   4  106.79   34.97
 -18  -8  -4   32.17   38.06
 -18   8  -4   42.82   30.37
  18   8   4   78.90   36.25
  18   8   4  115.11   32.57
  20  -8   4    6.94   38.68
  20  -8   4   32.92   31.21
 -20  -8  -4   33.32   38.42
 -20  -8  -4  115.42   32.65
  20   8   4   37.11   32.56
 -20   8  -4    4.99   25.05
  20   8   4   58.41   28.48
 -17  -9   4   15.41   28.35
  17  -9  -4   64.78   60.98
 -17  -9   4   26.18   27.28
  17  -9  -4   28.81   39.25
 -17   9   4    2.18   19.49
  17   9  -4    2.28    9.07
 -15  -9   4   15.53   32.95
  15  -9  -4   28.48   50.29
 -15  -9   4    7.63   23.61
  15  -9  -4   34.82   38.54
 -15  -9   4   30.34   25.61
  15   9  -4    0.37   10.76
 -15   9   4   -2.75   19.60
  13  -9  -4   38.10   52.03
 -13  -9   4   35.25   23.17
  13  -9  -4   70.78   41.65
 -13  -9   4   10.46   22.11
 -13  -9   4   64.63   35.60
 -13   9   4    6.34   19.33
  11  -9  -4   52.31   36.80
 -11  -9   4   43.33   22.88
 -11  -9   4   26.32   31.45
  11  -9  -4   27.06   50.80
 -11  -9   4   61.08   24.45
 -11   9   4    2.45   17.84
  -9  -9   4   24.60   18.41
   9  -9  -4   41.04   44.53
  -9  -9   4   79.45   32.09
   9  -9  -4   71.04   24.33
   9  -9  -4   41.73   33.92
  -9   9   4    6.74   17.56
   7  -9  -4   91.32   25.94
  -7  -9   4   63.40   27.84
   7  -9  -4   60.50   36.76
   7  -9  -4   37.47   44.45
   7  -9  -4   35.53   24.05
  -7   9   4   11.32   19.96
   5  -9  -4   23.83   40.20
   5  -9  -4   60.54   25.28
  -5  -9   4   33.51   14.20
   5  -9  -4   75.25   25.09
   5  -9  -4   45.89   33.63
  -5  -9   4   70.39   24.37
  -5   9   4   -0.03   18.43
   3  -9  -4   87.99   28.52
  -3  -9   4   64.57   16.15
   3  -9  -4   45.50   42.34
   3  -9  -4  102.97   40.69
   3  -9  -4   71.39   26.47
  -3  -9   4  141.74   28.00
  -3   9   4   48.72   23.96
   1  -9  -4  130.79   49.94
   1  -9  -4   92.73   40.89
   1  -9  -4   85.34   28.08
   1  -9  -4   82.31   27.91
  -1   9   4   21.33   20.06
  -1  -9  -4   19.98   29.11
  -1  -9  -4   37.53   33.09
  -1  -9  -4   62.44   25.51
  -1  -9  -4  116.36   28.15
  -1   9  -4   30.77   26.61
   1   9   4   30.07   20.02
  -3  -9  -4   24.90   20.82
  -3  -9  -4   44.62   29.29
  -3  -9  -4   24.08   28.11
  -3  -9  -4   51.47   33.34
   3   9   4   35.67   18.40
  -3   9  -4   17.20   26.37
  -5  -9  -4   18.37   24.05
   5  -9   4   47.10   21.15
  -5  -9  -4   23.58   21.12
  -5  -9  -4   20.61   28.81
   5  -9   4   60.69   20.60
  -5  -9  -4   22.76   28.32
  -5   9  -4   14.41   28.46
   5   9   4    5.24   15.67
  -7  -9  -4   16.77   21.51
   7  -9   4   70.66   24.28
  -7  -9  -4   -6.82   26.28
  -7  -9  -4   29.88   28.81
  -7  -9  -4   25.03   25.90
   7  -9   4   76.39   24.88
  -7   9  -4   25.56   28.78
   7   9   4   14.73   15.53
  -9  -9  -4    7.33   25.12
  -9  -9  -4    4.30   21.27
   9  -9   4   66.20   27.89
  -9  -9  -4   19.75   22.13
   9  -9   4    6.73   23.91
  -9   9  -4   11.48   29.11
   9   9   4   28.27   15.26
 -11  -9  -4   18.97   31.90
 -11  -9  -4    7.71   23.38
  11  -9   4   10.96   15.56
  11  -9   4    5.97   30.78
 -11  -9  -4   24.96   23.84
  11  -9   4   27.27   28.73
  11   9   4   -1.89   11.40
 -11   9  -4   25.75   29.07
 -13  -9  -4   -1.61   29.09
 -13  -9  -4   28.18   26.03
  13  -9   4  104.77   38.39
 -13  -9  -4   -7.31   15.59
  13  -9   4   50.84   34.50
  13  -9   4   29.16   20.43
  13   9   4   24.99   23.46
 -13   9  -4   28.51   20.92
 -13   9  -4    5.45   27.33
 -13   9  -4   -1.28   12.28
  15  -9   4    5.32   33.01
 -15  -9  -4    7.67   31.14
 -15  -9  -4    0.76   20.73
  15  -9   4   15.58   20.55
 -15  -9  -4   12.19   23.84
  15  -9   4   75.85   40.99
 -15   9  -4    1.70   16.36
 -15   9  -4    8.02   30.26
  15   9   4   35.10   22.91
  15   9   4   -5.27    5.89
 -17  -9  -4   -0.47   23.48
 -17  -9  -4   10.68   24.42
 -17  -9  -4  -34.54   19.47
  17  -9   4   16.50   36.79
  17  -9   4   18.61   23.88
  17   9   4   -0.74    7.36
  17   9   4   -1.05    5.54
 -17   9  -4   16.02   28.76
  14 -10  -4  172.88   73.74
 -14 -10   4   79.52   33.18
 -14 -10   4  135.57   51.58
  14 -10  -4  147.24   53.09
 -14 -10   4   59.82   30.77
 -14  10   4   72.82   29.45
 -12 -10   4  142.45   35.81
  12 -10  -4  177.05   52.27
 -12 -10   4  172.85   54.47
 -12 -10   4  107.08   33.25
  12 -10  -4  202.60   75.99
 -12  10   4  168.66   38.94
 -10 -10   4  204.79   56.02
 -10 -10   4  252.31   44.95
  10 -10  -4  285.82   81.70
  10 -10  -4  245.15   52.73
  10 -10  -4  180.61   54.66
 -10  10   4  160.03   41.70
  -8 -10   4  215.05   56.68
   8 -10  -4  238.89   63.80
   8 -10  -4  258.94   81.82
   8 -10  -4  339.09   56.55
  -8  10   4  224.74   49.77
  -6 -10   4  194.80   49.48
   6 -10  -4  249.08   79.36
   6 -10  -4  285.60   50.82
   6 -10  -4  277.93   65.07
  -6  10   4  197.14   46.10
   4 -10  -4  497.40   81.43
  -4 -10   4  265.05   52.27
   4 -10  -4  324.39   58.33
   4 -10  -4  322.18   73.42
   4 -10  -4  430.58   59.92
  -4  10   4  252.39   53.11
   2 -10  -4  467.62   69.97
   2 -10  -4  412.20   98.23
   2 -10  -4  398.65   80.92
   2 -10  -4  446.64   70.53
  -2  10   4  382.15   65.97
   0 -10  -4  402.44   65.47
   0 -10  -4  315.14   78.60
   0 -10  -4  523.26   67.58
   0 -10  -4  300.08   81.21
   0  10   4  341.75   61.05
  -2 -10  -4  389.42   59.66
  -2 -10  -4  359.80   81.81
  -2 -10  -4  343.83   58.77
  -2 -10  -4  261.44   70.81
   2  10   4  321.41   54.30
  -2  10  -4  251.55   59.45
  -4 -10  -4  176.27   59.95
  -4 -10  -4  410.92   59.99
  -4 -10  -4  296.48   55.17
  -4 -10  -4  301.76   71.80
  -4  10  -4  240.43   59.05
   4  10   4  347.92   51.51
  -6 -10  -4  348.19  105.25
   6 -10   4  296.23   54.13
  -6 -10  -4  197.05   67.09
  -6 -10  -4  358.58   61.37
   6  10   4  387.63   54.28
   8 -10   4  206.33   47.74
  -8 -10  -4  208.94   61.95
  -8 -10  -4  237.20   49.10
   8  10   4  218.99   39.25
  -8  10  -4  197.89   51.94
 -10 -10  -4  260.20   48.69
 -10 -10  -4   97.96   50.68
  10 -10   4  179.93   48.17
  10  10   4  219.40   35.57
 -10  10  -4  137.23   49.77
 -12 -10  -4  139.66   47.59
 -12 -10  -4   83.51   39.48
  12 -10   4  211.72   49.60
 -12  10  -4  112.92   42.99
 -14 -10  -4   97.26   42.74
  14 -10   4   70.96   23.95
  14 -10   4  117.54   42.38
 -14 -10  -4   15.05   28.23
  14 -10   4  151.46   42.50
 -14  10  -4   31.13   36.20
   9 -11  -4    3.24   30.21
  -9 -11   4   29.57   30.72
   9 -11  -4   51.80   52.85
   9 -11  -4   46.46   25.33
  -9 -11   4   35.59   24.31
  -9  11   4   -0.74   21.16
   7 -11  -4   -1.05   38.05
   7 -11  -4   41.59   22.87
   7 -11  -4   55.02   32.80
  -7 -11   4   56.19   23.48
  -7 -11   4   72.02   31.88
  -7  11   4    5.56   20.84
  -5 -11   4   32.22   22.89
   5 -11  -4   10.00   38.34
   5 -11  -4   19.11   26.83
   5 -11  -4    1.16   19.91
  -5  11   4  -12.55   19.02
   3 -11  -4   18.70   19.96
   3 -11  -4    9.41   37.33
   3 -11  -4    2.10   24.27
  -3  11   4    5.81   21.73
   1 -11  -4   -4.47   30.88
   1 -11  -4   56.64   33.64
   1 -11  -4   45.43   22.81
  -1  11   4    0.42   22.93
  -1 -11  -4    5.35   34.56
  -1 -11  -4   11.88   25.13
  -1 -11  -4   39.96   22.68
   1  11   4   17.38   22.55
  -3 -11  -4   13.88   26.95
  -3 -11  -4   11.62   21.55
  -3 -11  -4   43.30   38.71
  -3  11  -4   -0.85   31.35
   3  11   4    6.23   21.21
  -5 -11  -4   24.62   32.93
   5 -11   4   59.25   24.23
  -5 -11  -4    4.54   25.45
  -5 -11  -4   14.97   23.14
  -5  11  -4   15.42   35.55
   5  11   4    8.76   20.38
   7 -11   4   42.68   24.99
   7 -11   4   73.36   26.79
  -7 -11  -4   10.54   23.00
  -7 -11  -4   17.33   26.48
  -7 -11  -4   23.95   35.12
  -7  11  -4    2.01   30.61
   7  11   4    1.27   18.34
   9 -11   4   28.01   29.43
  -9 -11  -4   -2.40   28.73
  -9 -11  -4   18.09   24.59
   9 -11   4   26.95   28.03
  -9 -11  -4   11.50   25.03
 -28   0   5    1.47   24.20
 -26   0   5   14.54   26.53
  26   0  -5    4.73   37.44
  26   0  -5   53.11   48.93
  24   0  -5   18.08   42.19
 -24   0   5   22.88   24.96
  24   0  -5    2.68   37.69
 -22   0   5   16.45   22.08
  22   0  -5   38.30   43.76
  22   0  -5   -8.13   33.46
 -20   0   5   42.71   25.43
  20   0  -5   27.56   38.17
  20   0  -5  101.71   47.62
 -20   0   5   24.43   29.71
 -18   0   5   53.70   24.45
 -18   0   5   73.61   32.82
  18   0  -5   42.42   38.81
  18   0  -5   63.94   25.76
  18   0  -5   64.50   41.17
 -16   0   5   72.40   33.47
 -16   0   5   86.04   35.05
  16   0  -5  123.90   48.39
  16   0  -5   98.30   44.11
  16   0  -5   79.44   27.81
 -14   0   5    5.23   12.57
  14   0  -5    2.87   14.93
  14   0  -5   22.84   28.59
 -14   0   5   -3.76   21.10
  14   0  -5  -14.15   19.90
 -14   0   5    8.05   20.82
  12   0  -5   21.31   24.24
  12   0  -5   -0.11   12.58
 -12   0   5    2.50   18.25
 -12   0   5   -2.04   17.35
 -12   0   5   -3.76   10.25
  12   0  -5   -5.48   22.13
 -10   0   5   12.82   22.83
  10   0  -5    4.41   11.22
  10   0  -5   15.78   24.40
 -10   0   5   13.98   21.08
  10   0  -5   20.15   26.51
 -10   0   5   -4.28    9.32
  -8   0   5   83.57   22.08
   8   0  -5  114.40   40.51
   8   0  -5   72.71   22.04
  -8   0   5  124.69   38.12
  -8   0   5   85.62   35.46
   8   0  -5  137.08   45.85
   6   0  -5   75.33   21.06
   6   0  -5   61.81   32.33
   6   0  -5   68.32   32.82
  -6   0   5   68.58   31.65
  -6   0   5   66.16   28.21
  -6   0   5   40.41   16.51
  -4   0   5  126.83   45.27
   4   0  -5  178.28   50.28
   4   0  -5  187.01   35.78
   4   0  -5  175.21   51.26
  -4   0   5  196.20   37.31
  -4   0   5  201.70   50.32
   2   0  -5   31.61   15.23
   2   0  -5   23.02   24.82
  -2   0   5   26.77   23.01
  -2   0   5   24.99   14.59
   2   0  -5   16.36   20.32
  -2   0   5   29.13   22.20
   0   0  -5  141.91   47.13
   0   0  -5  104.93   38.44
   0   0  -5   87.09   25.09
   0   0  -5  121.98   27.59
   0   0   5   83.42   32.56
   0   0   5  132.46   29.43
   2   0   5    7.06   18.61
  -2   0  -5    5.55   17.58
  -2   0  -5    2.13   10.38
  -2   0  -5    0.19    8.18
  -2   0  -5  -15.69   12.25
   2   0   5   -5.08    9.99
   4   0   5  165.16   32.43
   4   0   5  202.00   49.39
   4   0   5  174.46   35.59
  -4   0  -5  161.90   43.44
  -4   0  -5  171.58   31.19
  -4   0  -5   73.29   35.63
  -4   0  -5  153.58   30.15
   6   0   5  131.71   38.90
   6   0   5  124.96   30.17
  -6   0  -5   45.29   28.77
   6   0   5  185.68   37.43
  -6   0  -5   92.78   34.21
  -6   0  -5  237.69   41.83
  -6   0  -5  112.95   28.01
   8   0   5   84.03   30.77
   8   0   5   87.19   18.69
   8   0   5  101.82   33.92
  -8   0  -5  127.67   32.75
  -8   0  -5   65.54   22.31
   8   0   5   77.67   26.96
  -8   0  -5   47.05   26.76
  10   0   5   49.13   27.61
  10   0   5   44.11   13.73
 -10   0  -5   34.84   20.57
  10   0   5   27.17   20.07
  10   0   5   42.16   25.14
 -10   0  -5   30.71   18.50
 -10   0  -5   22.95   24.79
  12   0   5    3.05   20.95
 -12   0  -5    6.80   21.82
 -12   0  -5   10.52   16.68
  12   0   5   18.93   21.17
 -12   0  -5   10.57   17.50
  12   0   5   20.56   10.72
  12   0   5    9.66   20.63
  14   0   5   53.01   31.76
 -14   0  -5   59.16   24.71
  14   0   5   30.58   12.11
 -14   0  -5   89.88   31.07
  14   0   5   68.03   29.61
 -14   0  -5   51.56   33.70
  14   0   5   71.13   33.43
 -16   0  -5  265.28   55.58
 -16   0  -5   81.75   39.94
 -16   0  -5  138.71   36.87
  16   0   5  120.57   40.84
  16   0   5  183.60   48.23
  16   0   5  206.74   51.12
  16   0   5   91.11   20.80
 -18   0  -5   26.11   31.12
  18   0   5   20.05   27.91
  18   0   5   13.26   10.73
 -18   0  -5   44.21   32.02
  18   0   5   15.50   30.66
  20   0   5  -10.75   26.12
  20   0   5  -11.93   24.70
 -20   0  -5  -15.10   23.85
 -22   0  -5   31.23   32.13
  22   0   5   61.03   37.47
  22   0   5   13.19   31.76
  24   0   5  -22.45   25.79
 -24   0  -5    8.73   31.80
  24   0   5    5.94   34.91
 -26   0  -5  -24.78   21.64
  26   0   5   14.20   32.81
  26   0   5   17.81   36.83
 -27  -1   5   40.06   29.69
  27  -1  -5    5.69   43.30
  27  -1  -5   32.42   52.95
  27   1  -5   48.11   54.44
 -27   1   5   65.87   30.87
  27   1  -5   27.36   46.72
  25  -1  -5   40.27   51.33
 -25  -1   5  108.59   35.73
  25  -1  -5  161.33   63.79
 -25   1   5   88.37   36.67
  25   1  -5  172.11   64.38
  25   1  -5   87.83   52.11
  23  -1  -5  202.34   65.79
 -23  -1   5  113.41   36.46
  23  -1  -5  114.02   56.09
  23   1  -5  141.91   59.71
 -23   1   5   76.59   32.47
  23   1  -5   80.69   47.60
 -21  -1   5  100.34   44.05
  21  -1  -5  141.39   58.71
  21  -1  -5  165.69   58.99
 -21  -1   5  134.75   36.79
 -21   1   5  117.03   37.03
  21   1  -5  178.05   59.44
  21   1  -5  158.20   60.06
 -19  -1   5  235.73   50.41
  19  -1  -5  342.17   80.57
  19  -1  -5  300.55   83.35
 -19  -1   5  211.86   61.02
 -19   1   5  202.60   57.15
  19   1  -5  150.96   58.45
  19   1  -5  288.67   46.70
 -19   1   5  271.96   53.28
  19   1  -5  255.41   65.63
 -17  -1   5  470.67   99.01
  17  -1  -5  410.67   68.89
  17  -1  -5  601.79   95.77
  17  -1  -5  539.30  110.28
 -17  -1   5  325.48   77.44
  17   1  -5  523.81   90.13
 -17   1   5  355.98   79.11
 -17   1   5  433.38   69.53
  17   1  -5  603.75   91.62
  17   1  -5  439.54   70.51
 -17   1   5  461.56   80.87
  15  -1  -5  542.21   96.21
  15  -1  -5  517.96   75.43
 -15  -1   5  433.13   83.24
 -15  -1   5  388.87   83.06
  15   1  -5  671.77   95.82
 -15   1   5  627.09   91.74
  15   1  -5  573.48   93.67
  15   1  -5  462.47   73.95
 -15   1   5  404.15   84.25
 -13  -1   5  408.95   56.98
 -13  -1   5  244.30   68.40
  13  -1  -5  322.00   57.54
 -13  -1   5  340.56   79.14
  13  -1  -5  372.69   84.01
  13  -1  -5  457.55   80.67
 -13   1   5  386.45   56.85
  13   1  -5  496.15   77.36
  13   1  -5  324.93   56.32
 -13   1   5  445.63   91.98
  13   1  -5  434.03   86.87
  11  -1  -5  640.71   93.32
 -11  -1   5  369.43   79.11
  11  -1  -5  528.44   88.82
  11  -1  -5  556.56   71.50
 -11  -1   5  502.81   68.79
 -11  -1   5  356.08   76.75
 -11   1   5  594.03   70.14
 -11   1   5  421.92   82.08
 -11   1   5  378.74   80.89
  11   1  -5  432.90   68.93
  11   1  -5  455.15   82.35
   9  -1  -5  820.40   94.99
  -9  -1   5  505.25  100.19
  -9  -1   5  496.91  102.58
   9  -1  -5  865.35  113.29
  -9  -1   5  661.90   91.65
   9   1  -5  600.04   91.66
  -9   1   5  702.57  107.31
   9   1  -5  849.44  110.41
   9   1  -5  741.46  105.73
  -9   1   5  602.79  106.83
   7  -1  -5 1507.03  218.92
  -7  -1   5 1223.32  215.65
   7  -1  -5 1854.25  225.43
   7  -1  -5 1528.27  205.88
  -7  -1   5 1436.95  215.31
  -7  -1   5 1820.80  205.95
   7   1  -5 1496.26  205.01
  -7   1   5 1619.38  205.22
  -7   1   5 1374.87  215.59
   7   1  -5 1868.62  220.72
   7   1  -5 1605.43  216.29
   5  -1  -5 1365.97  186.93
   5  -1  -5 1461.22  203.93
   5  -1  -5 1537.21  201.63
  -5  -1   5 1451.64  186.65
  -5  -1   5 1174.61  194.54
   5   1  -5 1469.25  199.25
   5   1  -5 1350.02  186.17
  -5   1   5 1617.92  187.50
   5   1  -5 1473.40  196.78
  -5   1   5 1383.22  197.56
  -3  -1   5 1259.53  176.51
   3  -1  -5 1272.67  183.42
  -3  -1   5 1258.25  166.55
   3  -1  -5 1188.38  166.53
   3  -1  -5 1346.43  181.12
   3   1  -5 1319.91  176.04
   3   1  -5 1208.26  178.49
  -3   1   5 1101.48  174.90
  -3   1   5 1431.34  167.48
   3   1  -5 1264.66  166.27
   1  -1  -5 1905.73  240.46
  -1  -1   5 1626.17  246.22
   1  -1  -5 1843.46  239.59
  -1  -1   5 1967.82  239.70
   1  -1  -5 1538.97  251.86
   1  -1  -5 2025.17  253.26
  -1   1   5 2128.24  240.63
   1   1  -5 1513.18  248.34
  -1   1   5 1789.93  248.85
   1   1  -5 1834.94  238.68
   1   1  -5 2035.28  249.05
   1   1  -5 1848.42  239.28
  -1  -1  -5 1190.24  174.89
   1  -1   5 1192.47  182.76
   1  -1   5 1401.22  176.00
  -1  -1  -5 1326.79  186.90
  -1  -1  -5 1377.64  176.69
  -1   1  -5 1314.49  183.73
   1   1   5 1333.66  175.84
   1   1   5 1232.21  183.71
  -1   1  -5 1385.49  175.17
  -1   1  -5 1458.09  176.10
   3  -1   5 1602.39  198.59
  -3  -1  -5 1471.55  198.35
   3  -1   5 1530.95  198.79
  -3  -1  -5 1571.65  199.00
  -3  -1  -5 1368.08  206.58
   3  -1   5 1507.69  206.93
   3   1   5 1563.15  198.80
  -3   1  -5 1550.38  197.90
   3   1   5 1466.12  207.10
  -3   1  -5 1528.64  197.43
  -3   1  -5 1271.18  203.85
   5  -1   5 2008.39  249.64
  -5  -1  -5 1896.77  248.97
   5  -1   5 2016.51  249.39
   5  -1   5 1942.43  257.42
  -5  -1  -5 1578.94  255.23
   5  -1   5 1950.59  243.06
  -5  -1  -5 1871.21  249.19
   5   1   5 1859.32  257.19
  -5   1  -5 1935.03  248.30
   5   1   5 1902.95  249.54
   5   1   5 1915.21  249.89
  -5   1  -5 1695.75  254.99
  -5   1  -5 2012.77  248.31
  -7  -1  -5 1239.44  173.21
  -7  -1  -5 1394.75  173.57
   7  -1   5 1241.04  172.36
   7  -1   5 1294.37  180.67
  -7  -1  -5 1081.59  179.45
   7  -1   5 1283.60  166.34
   7  -1   5 1399.47  174.94
  -7   1  -5 1210.27  172.09
   7   1   5 1328.99  174.57
  -7   1  -5 1022.70  177.23
   7   1   5 1473.37  175.53
   7   1   5 1553.00  183.62
  -7   1  -5 1244.54  171.12
  -9  -1  -5  669.62  111.60
   9  -1   5  975.84  122.12
   9  -1   5  977.07  114.76
  -9  -1  -5  585.80  117.23
  -9  -1  -5  657.87  109.96
   9  -1   5  891.26  116.35
  -9   1  -5  957.84  112.29
   9   1   5  763.22  113.93
   9   1   5  747.23  103.24
   9   1   5  764.10  117.86
  -9   1  -5  918.84  114.13
   9   1   5  684.15  112.03
  -9   1  -5  869.05  121.68
 -11  -1  -5  646.14   98.24
  11  -1   5  734.76   88.91
  11  -1   5  814.43  106.48
  11  -1   5  790.03  103.60
  11  -1   5  748.19   99.41
 -11  -1  -5  573.58   95.07
 -11  -1  -5  470.82  102.57
  11   1   5  622.12   86.88
  11   1   5  600.62   98.15
  11   1   5  641.94  100.30
 -11   1  -5  679.33   95.34
 -11   1  -5  755.33  100.13
  11   1   5  654.37  102.76
 -11   1  -5  590.74  103.55
  13  -1   5  609.22   92.29
  13  -1   5  545.19   73.86
 -13  -1  -5  480.68   83.78
 -13  -1  -5  472.82   82.33
  13  -1   5  556.31   86.79
  13  -1   5  587.57   90.29
 -13  -1  -5  464.78   90.96
 -13   1  -5  544.55   86.73
 -13   1  -5  404.53   89.36
 -13   1  -5  537.00   82.42
  13   1   5  633.68   93.27
  13   1   5  597.26   72.41
  13   1   5  550.37   88.92
  13   1   5  596.31   88.22
  15  -1   5  640.26   99.44
  15  -1   5  717.38  100.06
  15  -1   5  572.62   94.29
 -15  -1  -5  512.63  100.19
 -15  -1  -5  488.73   91.97
 -15  -1  -5  542.39   90.33
  15  -1   5  669.52   81.47
  15   1   5  567.86   95.68
  15   1   5  511.90   95.68
 -15   1  -5  455.30   98.09
 -15   1  -5  580.01   90.21
 -15   1  -5  552.16   94.26
  15   1   5  682.70   79.21
  15   1   5  733.85  101.73
  17  -1   5  362.18   77.68
 -17  -1  -5  257.77   83.89
  17  -1   5  641.59   87.28
 -17  -1  -5  385.57   72.38
  17  -1   5  281.47   77.34
  17  -1   5  497.57   62.88
 -17  -1  -5  364.24   74.13
  17   1   5  391.63   77.69
  17   1   5  560.73   84.67
  17   1   5  441.56   83.03
  17   1   5  511.79   60.23
 -17   1  -5  447.17   79.14
 -17   1  -5  515.86   76.34
  19  -1   5  307.99   68.57
 -19  -1  -5  159.19   55.15
  19  -1   5  213.35   56.30
 -19   1  -5  183.21   57.91
  19   1   5  340.83   72.09
  19   1   5  245.48   58.51
  21  -1   5  127.62   45.40
  21  -1   5  129.05   44.95
 -21  -1  -5   87.52   44.46
  21   1   5  111.26   42.77
  21   1   5  183.54   56.70
 -21   1  -5   56.12   37.42
 -23  -1  -5   12.01   31.33
  23  -1   5  119.05   43.24
  23  -1   5   41.48   38.34
 -23   1  -5   28.45   34.83
  23   1   5   55.33   40.60
  23   1   5   55.18   35.70
  25  -1   5   66.79   38.42
  25  -1   5   46.60   37.30
 -25  -1  -5   75.82   44.08
 -25   1  -5   41.36   38.41
  25   1   5  187.84   58.13
  25   1   5   44.33   35.82
  27  -1   5   32.83   40.25
 -27  -1  -5   63.25   37.67
  27  -1   5   42.10   38.91
  27   1   5   22.75   35.88
 -27   1  -5  -14.69   32.14
  27   1   5   73.08   43.41
 -26  -2   5   17.47   26.00
  26  -2  -5    7.88   41.22
  26  -2  -5   22.13   49.68
  26   2  -5   16.96   42.10
 -26   2   5   10.28   25.03
  26   2  -5   28.46   48.10
 -24  -2   5    7.71   24.67
  24  -2  -5   22.54   40.37
  24  -2  -5   14.17   41.54
 -24   2   5    1.96   21.11
  24   2  -5   13.28   38.23
  24   2  -5   36.90   42.60
 -22  -2   5    3.41   25.35
  22  -2  -5   10.19   41.93
  22  -2  -5   11.98   36.88
 -22  -2   5   40.15   25.29
  22   2  -5   29.77   38.78
  22   2  -5   16.85   35.91
 -22   2   5    9.28   22.22
 -20  -2   5   55.81   30.40
 -20  -2   5   44.55   25.00
  20  -2  -5   38.77   39.93
  20  -2  -5    9.76   32.50
  20   2  -5   19.61   21.28
 -20   2   5   15.37   20.61
  20   2  -5    1.56   30.84
  20   2  -5   28.75   37.26
  18  -2  -5  130.54   53.85
  18  -2  -5  121.84   51.03
 -18  -2   5   68.99   27.80
 -18  -2   5  107.32   38.89
  18   2  -5   66.58   25.40
  18   2  -5   58.02   36.62
 -18   2   5   80.71   37.21
 -18   2   5   73.09   28.14
  18   2  -5  100.31   44.82
  16  -2  -5  150.72   59.40
  16  -2  -5  172.59   60.11
 -16  -2   5  199.70   52.71
 -16  -2   5  118.57   42.19
  16  -2  -5  139.51   34.08
  16   2  -5  192.04   54.34
 -16   2   5   62.15   27.23
 -16   2   5   96.35   43.87
 -16   2   5  136.57   41.98
  16   2  -5  191.88   52.40
  16   2  -5   88.64   29.31
  14  -2  -5   40.29   20.03
  14  -2  -5   85.25   44.38
 -14  -2   5   37.21   30.60
  14  -2  -5   52.13   36.41
 -14  -2   5   30.76   18.63
 -14  -2   5   58.68   29.02
 -14   2   5   10.94   26.50
  14   2  -5   56.21   20.87
 -14   2   5   30.16   31.07
  14   2  -5   82.61   38.54
  14   2  -5   98.46   41.08
  12  -2  -5  147.12   51.46
 -12  -2   5   68.14   22.38
 -12  -2   5   98.33   37.55
  12  -2  -5   76.63   25.01
 -12  -2   5   80.33   32.06
  12  -2  -5   76.26   36.00
 -12   2   5   83.48   36.25
 -12   2   5   73.18   35.67
  12   2  -5  110.12   38.28
  12   2  -5  117.28   41.26
 -12   2   5   58.74   20.74
  12   2  -5   73.11   22.89
  10  -2  -5  178.88   54.56
 -10  -2   5  167.26   46.08
 -10  -2   5  154.66   45.48
 -10  -2   5  131.38   28.67
  10  -2  -5  134.87   31.21
  10  -2  -5  137.21   46.52
 -10   2   5  103.20   26.89
  10   2  -5  112.35   27.30
 -10   2   5  111.57   43.76
  10   2  -5  281.79   58.51
 -10   2   5   98.50   38.30
  10   2  -5  133.33   39.01
  -8  -2   5  218.27   54.80
  -8  -2   5  183.04   46.95
  -8  -2   5  152.87   31.79
   8  -2  -5  134.28   33.78
   8  -2  -5  239.97   64.12
   8  -2  -5  237.02   64.15
  -8   2   5  145.47   31.58
  -8   2   5  100.75   42.28
  -8   2   5  150.87   49.92
   8   2  -5  166.03   33.06
   8   2  -5  239.68   51.11
   8   2  -5  212.01   47.16
  -6  -2   5  217.65   50.92
   6  -2  -5  177.01   50.70
   6  -2  -5  181.64   35.72
   6  -2  -5  306.00   69.58
  -6  -2   5  172.92   49.91
  -6  -2   5  179.07   34.13
   6   2  -5  325.27   60.45
  -6   2   5  235.64   56.02
   6   2  -5  228.44   47.75
   6   2  -5  153.40   30.49
  -6   2   5  143.81   30.01
  -6   2   5  117.88   43.81
  -4  -2   5   92.38   37.49
  -4  -2   5   69.15   29.05
  -4  -2   5   82.01   23.97
   4  -2  -5  106.43   43.24
   4  -2  -5  114.99   27.36
   4  -2  -5  108.74   42.51
   4   2  -5  114.87   38.77
  -4   2   5   65.32   35.91
   4   2  -5  115.98   25.41
  -4   2   5  106.37   25.33
   4   2  -5  139.33   36.79
  -4   2   5   81.18   34.65
  -2  -2   5   67.80   34.37
   2  -2  -5  144.02   30.05
  -2  -2   5  115.08   27.28
   2  -2  -5  139.81   47.85
  -2  -2   5   89.49   34.54
   2  -2  -5  139.92   46.64
   2   2  -5  215.09   46.10
   2   2  -5  142.72   29.07
   2   2  -5  138.50   40.17
   2   2  -5  139.62   25.24
  -2   2   5  101.44   36.25
  -2   2   5   73.77   35.89
  -2   2   5  208.45   35.23
   0  -2   5  133.06   39.07
   0  -2  -5  169.41   49.13
   0  -2  -5   91.89   39.68
   0  -2   5   69.88   32.06
   0  -2  -5  111.41   28.39
   0  -2   5  143.40   29.16
   0  -2  -5  132.45   31.77
   0   2   5  131.17   30.26
   0   2   5  141.02   41.71
   0   2  -5  125.38   40.05
   0   2  -5  169.86   37.55
   0   2  -5  114.10   25.34
   0   2  -5  120.98   26.39
   0   2   5   73.13   34.54
  -2  -2  -5   49.67   20.04
   2  -2   5   50.00   14.96
   2  -2   5   70.63   21.65
   2  -2   5   30.57   21.43
  -2  -2  -5   30.98   25.65
  -2  -2  -5   48.50   19.75
  -2  -2  -5   41.14   27.81
   2   2   5   80.88   33.78
  -2   2  -5   79.33   21.47
   2   2   5   85.15   23.71
  -2   2  -5   28.79   23.71
  -2   2  -5   63.67   26.21
  -2   2  -5   45.88   16.99
  -4  -2  -5  154.79   35.81
   4  -2   5  138.78   27.00
  -4  -2  -5  100.17   36.60
   4  -2   5  156.18   33.73
   4  -2   5  186.92   37.10
  -4  -2  -5  152.59   36.11
   4  -2   5  147.90   42.35
   4   2   5  147.57   35.41
  -4   2  -5  146.62   31.09
  -4   2  -5   67.83   34.73
   4   2   5  163.05   47.37
   4   2   5  171.79   37.33
  -4   2  -5  178.78   46.36
  -4   2  -5  147.19   31.60
   6  -2   5  304.05   61.02
  -6  -2  -5  118.90   46.29
   6  -2   5  190.95   31.37
  -6  -2  -5  192.20   37.84
  -6  -2  -5  126.34   43.93
   6  -2   5  277.21   41.52
   6  -2   5  185.00   37.16
  -6  -2  -5  245.94   46.43
  -6   2  -5  106.29   42.44
  -6   2  -5  218.41   36.94
   6   2   5  243.79   41.78
  -6   2  -5  251.30   55.43
  -6   2  -5  184.27   35.47
   6   2   5  239.17   55.26
   6   2   5  238.14   39.54
   8  -2   5   88.25   28.28
  -8  -2  -5   20.44   24.75
  -8  -2  -5  114.30   30.58
   8  -2   5   62.21   23.70
   8  -2   5   88.71   19.70
  -8  -2  -5   63.17   31.27
  -8  -2  -5  111.03   28.86
   8  -2   5   78.92   31.36
   8   2   5   71.24   27.39
   8   2   5   60.85   29.32
  -8   2  -5   84.08   32.31
   8   2   5  149.64   36.17
  -8   2  -5   51.93   19.94
  -8   2  -5   92.41   28.23
 -10  -2  -5  114.18   35.12
  10  -2   5   91.93   34.69
  10  -2   5   67.41   26.41
 -10  -2  -5   46.04   32.35
  10  -2   5  100.52   32.76
  10  -2   5   67.43   18.83
 -10  -2  -5   49.92   23.66
  10   2   5   91.29   17.45
  10   2   5   67.41   27.62
 -10   2  -5   75.65   24.51
 -10   2  -5  134.63   35.12
  10   2   5   93.04   35.19
 -10   2  -5   91.13   34.13
  10   2   5   86.17   30.19
 -12  -2  -5   14.32   25.22
 -12  -2  -5   26.60   20.26
  12  -2   5   42.13   22.25
  12  -2   5   40.95   27.28
  12  -2   5   92.22   35.20
 -12  -2  -5   44.37   25.10
  12  -2   5   37.04   14.21
 -12   2  -5   28.21   23.17
  12   2   5    9.10   24.19
  12   2   5   53.47   11.80
 -12   2  -5   23.10   19.20
 -12   2  -5   17.65   24.77
  12   2   5   35.57   26.43
  12   2   5   26.10   24.44
  14  -2   5    8.36   27.37
  14  -2   5   23.60   12.94
 -14  -2  -5   28.49   28.75
 -14  -2  -5   32.53   22.17
  14  -2   5   77.20   33.61
 -14  -2  -5   34.99   27.21
  14  -2   5   12.99   20.93
  14   2   5   36.74   29.35
  14   2   5   27.16    8.50
 -14   2  -5   50.26   22.30
 -14   2  -5    7.15   26.51
 -14   2  -5   60.61   27.05
  14   2   5   -4.89   22.09
  14   2   5   22.56   23.90
  16  -2   5   94.70   34.69
  16  -2   5  149.89   46.30
  16  -2   5   66.98   17.58
 -16  -2  -5  171.87   46.35
  16  -2   5  121.14   40.81
 -16  -2  -5   56.82   27.90
 -16  -2  -5   65.24   36.63
  16   2   5  194.29   51.20
 -16   2  -5  165.90   48.11
 -16   2  -5   55.86   34.14
  16   2   5  178.69   48.47
  16   2   5   63.55   34.43
 -16   2  -5   63.72   27.33
  18  -2   5   15.18   13.36
 -18  -2  -5   13.94   21.43
 -18  -2  -5   16.63   30.12
  18  -2   5   18.29   27.09
  18  -2   5   25.12   32.12
 -18   2  -5   24.84   32.70
  18   2   5   11.69   29.72
 -18   2  -5  -22.66   21.81
  18   2   5    7.88   24.55
  20  -2   5    2.13   30.05
 -20  -2  -5   19.84   31.78
  20  -2   5    2.56   26.22
 -20   2  -5   16.86   33.15
  20   2   5   19.40   35.25
  20   2   5   18.40   28.88
 -20   2  -5    4.59   30.56
  22  -2   5    4.69   32.53
 -22  -2  -5   23.23   33.49
  22  -2   5   -2.76   28.76
  22   2   5    6.85   27.10
 -22   2  -5  -12.22   28.86
  22   2   5   16.77   35.95
  24  -2   5   -1.81   31.35
  24  -2   5   16.96   34.90
 -24  -2  -5  -15.12   27.06
  24   2   5   -5.82   33.24
  24   2   5   27.06   33.46
 -24   2  -5   -2.57   31.79
  26  -2   5    5.55   33.21
 -26  -2  -5    8.02   33.09
  26  -2   5   -6.52   32.02
  26   2   5    4.48   37.45
 -26   2  -5   20.64   36.85
  26   2   5   32.35   37.78
 -27  -3   5   48.35   30.69
 -27   3   5   -3.20   23.25
 -25  -3   5   36.51   28.45
  25  -3  -5   54.83   50.65
  25  -3  -5   81.17   58.27
 -25   3   5   60.87   31.60
  25   3  -5   83.20   50.11
  25   3  -5   56.29   46.20
  23  -3  -5   72.55   53.43
  23  -3  -5   70.73   54.02
 -23  -3   5   62.21   31.12
 -23  -3   5   11.36   29.76
 -23   3   5   65.07   31.45
  23   3  -5   91.49   45.68
  23   3  -5   93.91   45.57
  21  -3  -5  132.67   59.02
  21  -3  -5  136.47   61.75
 -21  -3   5  132.74   37.92
 -21  -3   5  135.71   47.75
  21   3  -5  122.25   49.27
  21   3  -5   96.80   47.03
 -21   3   5  171.06   40.82
  21   3  -5  111.77   33.80
 -19  -3   5  119.91   46.20
  19  -3  -5  317.80   80.03
 -19  -3   5  199.33   44.13
  19  -3  -5  200.19   69.14
  19   3  -5  209.52   58.69
  19   3  -5  195.57   53.91
  19   3  -5  153.75   39.25
 -19   3   5  324.52   53.49
  17  -3  -5  271.19   81.49
 -17  -3   5  235.52   66.10
 -17  -3   5  232.49   64.97
  17  -3  -5  360.11   83.47
  17   3  -5  361.55   74.78
 -17   3   5  313.09   56.89
  17   3  -5  239.31   48.08
  17   3  -5  343.89   70.87
 -17   3   5  248.56   70.77
  15  -3  -5  601.98  110.71
 -15  -3   5  363.69   71.79
  15  -3  -5  323.33   59.27
  15  -3  -5  416.68   95.62
 -15  -3   5  396.30   71.20
  15   3  -5  414.74   73.82
 -15   3   5  306.03   69.09
 -15   3   5  367.86   89.53
  15   3  -5  358.11   59.27
 -15   3   5  415.33   61.41
  15   3  -5  418.66   73.80
 -13  -3   5  432.14   80.56
 -13  -3   5  431.21   81.09
 -13  -3   5  567.84   70.75
  13  -3  -5  383.48   69.79
  13  -3  -5  695.02  124.89
  13   3  -5  457.30   69.71
 -13   3   5  458.27   84.45
 -13   3   5  362.25   81.16
  13   3  -5  509.86   81.19
  13   3  -5  645.47   86.29
  11  -3  -5  668.03  103.31
  11  -3  -5  564.73  100.13
 -11  -3   5  518.83   86.34
 -11  -3   5  407.86   86.20
  11  -3  -5  461.14   77.41
 -11  -3   5  578.60   76.98
 -11   3   5  577.53   77.28
  11   3  -5  512.60   76.23
  11   3  -5  582.08   89.09
  11   3  -5  611.30   87.52
 -11   3   5  575.77  113.31
   9  -3  -5  665.00  101.10
  -9  -3   5  498.07   83.99
  -9  -3   5  437.54   85.64
   9  -3  -5  498.70   75.96
  -9  -3   5  503.65   73.82
   9  -3  -5  481.37   92.59
   9   3  -5  659.20   84.64
   9   3  -5  657.14   87.99
  -9   3   5  412.61   86.09
  -9   3   5  605.27   75.40
   9   3  -5  478.61   73.51
  -9   3   5  512.59   88.14
   7  -3  -5  753.06  115.99
  -7  -3   5  732.69   92.57
   7  -3  -5  678.42  111.61
  -7  -3   5  622.07  104.89
  -7  -3   5  640.00  101.79
   7  -3  -5  563.71   92.90
   7   3  -5  838.57  100.55
   7   3  -5  855.24  105.07
  -7   3   5  583.97  102.72
   7   3  -5  692.07   91.79
  -7   3   5  688.45   92.31
  -7   3   5  479.30  101.90
  -5  -3   5  439.15   77.04
   5  -3  -5  363.52   90.45
   5  -3  -5  465.20  104.01
  -5  -3   5  531.97   68.88
   5   3  -5  519.69   72.89
  -5   3   5  430.03   94.20
   5   3  -5  488.92   77.68
   5   3  -5  476.48   67.14
   3  -3  -5  589.21   92.96
   3  -3  -5  602.07   89.84
  -3  -3   5  436.02   76.18
   3  -3  -5  473.79   70.05
  -3  -3   5  505.15   69.58
   3   3  -5  415.92   66.42
   3   3  -5  483.80   71.83
  -3   3   5  446.09   80.02
   3   3  -5  465.14   77.19
  -3   3   5  548.06   69.69
  -1  -3   5  758.94  109.08
   1  -3  -5  695.94  101.36
  -1  -3   5  709.85   96.83
  -1  -3   5  706.03   99.03
   1  -3  -5  567.30  113.74
   1  -3  -5  738.97  114.78
   1  -3  -5  763.32  101.09
  -1   3   5  676.58  109.13
   1   3  -5  825.80  102.14
   1   3  -5  730.07  107.86
   1   3  -5  813.74   97.69
   1   3  -5  641.40   97.74
  -1   3   5  794.78   99.98
  -1  -3  -5  406.27   61.09
  -1  -3  -5  390.26   71.81
   1  -3   5  426.74   56.19
   1  -3   5  365.02   65.23
   1  -3   5  382.22   58.68
  -1  -3  -5  272.29   78.88
  -1  -3  -5  350.16   59.20
   1   3   5  425.31   70.46
  -1   3  -5  381.75   60.23
  -1   3  -5  431.90   58.30
   1   3   5  422.52   59.53
   3  -3   5  502.34   61.82
   3  -3   5  510.52   74.48
   3  -3   5  431.78   64.59
  -3  -3  -5  389.91   65.62
  -3  -3  -5  393.90   65.68
  -3  -3  -5  352.91   73.03
   3   3   5  419.03   64.84
  -3   3  -5  424.89   66.61
   3   3   5  395.61   72.80
  -3   3  -5  484.72   63.80
  -3   3  -5  452.46   62.81
  -5  -3  -5  757.35  112.15
   5  -3   5  743.92  109.66
  -5  -3  -5  883.33  105.35
   5  -3   5  671.63  100.35
   5  -3   5  615.43   95.75
   5  -3   5  645.78   99.46
  -5   3  -5  779.10   99.49
  -5   3  -5  706.46  103.33
   5   3   5  883.04  103.60
  -5   3  -5  605.95   97.51
   5   3   5  936.55  113.14
  -7  -3  -5  737.59   94.24
  -7  -3  -5  627.44   93.18
   7  -3   5  638.65   97.68
   7  -3   5  664.61   90.78
   7  -3   5  584.89   91.82
   7  -3   5  658.21   85.91
  -7  -3  -5  510.85   98.38
   7   3   5  635.21   93.61
   7   3   5  673.25   92.29
  -7   3  -5  580.41   89.02
  -7   3  -5  630.00   88.89
  -7   3  -5  519.36   93.30
   7   3   5  742.73  101.36
   9  -3   5  465.34   71.50
  -9  -3  -5  392.73   71.20
  -9  -3  -5  455.57   96.20
   9  -3   5  504.49   65.91
   9  -3   5  425.54   73.59
   9  -3   5  500.25   79.75
  -9   3  -5  549.58   71.11
   9   3   5  445.39   72.71
   9   3   5  611.78   82.85
  -9   3  -5  489.68   71.72
   9   3   5  418.90   73.66
  -9   3  -5  381.47   74.74
 -11  -3  -5  438.51   92.44
 -11  -3  -5  570.75   87.88
  11  -3   5  674.94   94.04
 -11  -3  -5  592.37   86.56
  11  -3   5  588.58   77.79
  11  -3   5  571.78   89.26
  11  -3   5  493.45   84.15
  11   3   5  557.77   88.22
  11   3   5  738.92   95.12
 -11   3  -5  479.67   83.78
  11   3   5  649.81   73.97
  11   3   5  534.08   87.34
 -11   3  -5  452.85   86.85
 -11   3  -5  506.30   82.41
 -13  -3  -5  500.17   72.54
  13  -3   5  500.28   77.47
  13  -3   5  492.00   71.62
  13  -3   5  329.63   67.89
  13  -3   5  450.38   74.64
 -13  -3  -5  454.62   94.98
 -13  -3  -5  421.97   68.58
 -13   3  -5  280.06   72.78
 -13   3  -5  342.80   59.65
 -13   3  -5  436.35   68.30
  13   3   5  469.38   74.30
  13   3   5  418.33   71.34
 -13   3  -5  461.97   68.99
  15  -3   5  255.26   63.64
  15  -3   5  306.79   61.28
 -15  -3  -5  413.42   66.61
 -15  -3  -5  316.37   58.38
 -15  -3  -5  251.51   71.45
  15  -3   5  474.90   69.93
 -15   3  -5  253.21   48.24
  15   3   5  397.79   74.74
  15   3   5  357.62   66.26
 -15   3  -5  216.65   61.92
 -15   3  -5  403.79   61.50
 -15   3  -5  358.77   59.61
 -17  -3  -5  251.52   54.59
  17  -3   5  162.19   46.53
 -17  -3  -5  163.11   56.96
  17   3   5  184.41   50.73
  17   3   5  218.96   57.36
 -17   3  -5  192.57   35.56
  17   3   5  358.18   78.11
 -17   3  -5  155.56   50.12
 -17   3  -5  320.98   63.82
 -19  -3  -5  161.59   59.18
  19  -3   5  149.05   45.91
  19  -3   5  138.50   48.60
  19   3   5  203.78   58.03
 -19   3  -5  194.22   33.87
 -19   3  -5  305.49   60.93
 -19   3  -5  170.19   48.82
  19   3   5  232.36   61.88
 -21  -3  -5   77.66   40.03
  21  -3   5   88.70   39.29
  21  -3   5   83.68   40.65
  21   3   5  109.46   45.51
 -21   3  -5   97.88   26.44
 -21   3  -5  290.30   68.51
 -21   3  -5  109.84   42.20
  21   3   5  129.09   48.84
  23  -3   5   50.22   36.94
  23  -3   5   38.19   40.89
 -23  -3  -5  115.47   46.01
 -23   3  -5  106.73   44.78
  23   3   5   59.77   46.46
 -23   3  -5   39.55   18.00
  23   3   5   81.31   39.66
  25  -3   5   21.48   31.18
 -25  -3  -5   -2.29   28.22
  25  -3   5   69.65   39.58
 -25   3  -5   15.79   15.56
  25   3   5   31.18   41.18
 -25   3  -5   33.85   39.65
  25   3   5    1.40   31.44
  26  -4  -5   -2.06   47.26
 -26  -4   5    8.95   28.37
 -26   4   5   -6.37   22.05
  26   4  -5   37.15   44.69
  24  -4  -5   30.62   46.14
 -24  -4   5    8.59   24.43
  24  -4  -5   27.87   45.39
 -24   4   5  -12.80   21.51
  24   4  -5  -24.40   30.01
  24   4  -5    2.88   34.80
 -22  -4   5   -3.07   29.33
  22  -4  -5   27.36   47.72
  22  -4  -5   -9.53   32.06
 -22  -4   5    3.19   24.12
 -22   4   5   15.53   23.52
  22   4  -5   27.03   36.31
  22   4  -5   11.28   35.72
  22   4  -5   10.81   18.84
 -20  -4   5   -3.44   25.89
 -20  -4   5   37.00   26.50
  20  -4  -5   14.93   37.97
  20  -4  -5  -13.41   30.53
  20   4  -5    2.74   31.27
  20   4  -5   26.64   32.07
 -20   4   5    1.71   20.09
  20   4  -5    7.30   19.56
 -18  -4   5   30.64   31.48
 -18  -4   5   34.40   24.32
  18  -4  -5   79.45   49.89
  18  -4  -5   67.48   45.57
  18   4  -5   52.17   33.90
 -18   4   5   11.58   35.03
  18   4  -5   58.34   22.64
 -18   4   5   32.58   22.92
  18   4  -5   67.59   36.12
 -16  -4   5   64.20   30.95
 -16  -4   5   76.63   34.32
  16  -4  -5   43.99   40.21
  16  -4  -5  115.38   51.66
  16   4  -5   81.82   35.21
  16   4  -5  105.01   40.70
  16   4  -5   67.15   21.96
 -16   4   5   62.68   46.40
 -16   4   5   47.79   23.28
 -14  -4   5   36.43   20.29
  14  -4  -5   44.50   22.44
  14  -4  -5   75.66   45.40
 -14  -4   5   75.60   31.75
 -14  -4   5   53.76   28.49
  14  -4  -5   29.81   36.56
 -14   4   5   51.31   22.21
 -14   4   5   52.50   31.11
 -14   4   5   36.25   40.71
  14   4  -5   86.32   35.39
  14   4  -5   74.63   30.60
  14   4  -5   75.36   21.83
 -12  -4   5   68.10   22.28
  12  -4  -5   86.13   45.21
 -12  -4   5   93.38   35.45
 -12  -4   5   70.93   29.84
  12  -4  -5  148.97   54.13
  12  -4  -5   79.44   25.77
 -12   4   5   38.01   35.63
  12   4  -5   73.47   21.28
 -12   4   5   48.51   40.57
  12   4  -5  128.38   38.62
  12   4  -5   89.06   31.18
  10  -4  -5  244.17   63.05
  10  -4  -5  171.20   58.02
 -10  -4   5   98.82   27.04
 -10  -4   5  122.26   39.97
  10  -4  -5  125.66   33.33
 -10  -4   5  169.16   46.23
 -10   4   5   85.21   26.51
  10   4  -5  136.45   28.33
  10   4  -5  229.18   48.40
 -10   4   5  127.38   46.00
  10   4  -5  174.11   36.46
 -10   4   5  215.15   55.47
  -8  -4   5   50.12   19.45
   8  -4  -5   68.01   23.22
  -8  -4   5   84.77   35.23
  -8  -4   5   91.61   30.84
   8  -4  -5  141.76   53.24
   8  -4  -5  123.52   46.27
   8   4  -5  149.33   37.36
   8   4  -5  110.26   26.59
  -8   4   5   76.86   20.73
  -8   4   5   41.19   33.31
  -8   4   5  106.58   39.95
   8   4  -5   59.52   18.19
  -6  -4   5   15.92   14.20
   6  -4  -5   40.55   33.11
   6  -4  -5   48.30   34.70
  -6  -4   5   88.62   30.35
   6  -4  -5   35.00   17.03
  -6  -4   5   47.46   26.30
  -6  -4   5   27.59   12.78
  -6   4   5   28.89   14.29
   6   4  -5   37.36   21.89
  -6   4   5   28.83   27.08
  -6   4   5   41.29   30.72
   6   4  -5   56.91   16.76
   6   4  -5   42.87   13.22
  -4  -4   5   16.95   10.71
   4  -4  -5    0.30   21.78
  -4  -4   5   16.66   13.84
   4  -4  -5   -2.88   11.85
  -4  -4   5    5.22   15.97
   4  -4  -5   22.80   28.86
  -4  -4   5    6.04   18.48
  -4   4   5    7.67   11.41
  -4   4   5    8.66   20.13
   4   4  -5   19.22    9.85
   4   4  -5   21.20   17.27
  -4   4   5    8.93   23.83
   2  -4  -5  158.80   32.83
  -2  -4   5  148.65   30.03
  -2  -4   5  119.97   23.38
   2  -4  -5  126.87   45.82
   2  -4  -5  146.01   35.19
   2  -4  -5  171.10   54.02
  -2  -4   5  131.70   35.55
  -2   4   5   83.26   38.42
  -2   4   5  163.81   31.21
  -2   4   5  123.94   43.34
   2   4  -5   89.96   24.52
   2   4  -5  213.78   44.96
   0  -4  -5   52.96   30.28
   0  -4  -5   49.03   19.76
   0  -4   5   13.18   17.18
   0  -4   5   58.35   26.26
   0  -4   5   49.00   14.80
   0  -4  -5   41.10   18.59
   0  -4  -5   59.60   34.05
   0  -4   5   32.74   16.37
   0   4  -5   36.75   21.37
   0   4  -5   33.29   14.14
   0   4   5   46.52   17.46
   0   4   5   77.60   33.74
   0   4   5   38.44   25.34
  -2  -4  -5   31.08   17.82
   2  -4   5   25.61   15.18
   2  -4   5   33.25   24.22
  -2  -4  -5   47.08   29.46
  -2  -4  -5   20.42   25.61
   2  -4   5   31.97   13.26
  -2  -4  -5   39.10   18.69
   2   4   5   51.58   18.72
  -2   4  -5   18.30   18.42
   2   4   5   83.61   32.81
  -2   4  -5   38.33   14.65
  -4  -4  -5   -0.50   16.95
  -4  -4  -5   38.48   20.11
   4  -4   5   13.14   23.48
  -4  -4  -5   49.51   21.24
  -4  -4  -5   28.64   24.96
   4  -4   5   42.89   15.20
   4  -4   5   27.58   16.50
   4   4   5   14.42   20.37
  -4   4  -5   30.04   14.26
  -4   4  -5    8.45   20.04
   4   4   5   17.03   16.34
  -6  -4  -5   50.10   29.80
   6  -4   5   65.30   23.17
  -6  -4  -5   17.26   21.36
  -6  -4  -5  128.94   33.79
  -6  -4  -5   57.21   23.32
   6  -4   5  111.28   37.79
   6  -4   5   58.10   21.36
  -6   4  -5   69.11   21.41
   6   4   5   64.15   30.48
   6   4   5   44.74   22.13
  -6   4  -5   76.67   20.41
   6   4   5   49.95   23.96
  -6   4  -5   76.22   18.09
  -6   4  -5   66.32   28.67
   8  -4   5   41.36   24.01
   8  -4   5   79.21   33.05
  -8  -4  -5   74.50   34.16
  -8  -4  -5   63.41   27.56
   8  -4   5   39.27   19.85
  -8  -4  -5   74.32   27.30
  -8  -4  -5   18.42   22.32
   8   4   5   58.00   28.05
   8   4   5   54.99   25.48
  -8   4  -5   50.76   21.95
  -8   4  -5   46.05   19.00
   8   4   5   27.34   19.94
  -8   4  -5   58.56   19.41
  10  -4   5   52.31   23.54
 -10  -4  -5   42.25   24.52
  10  -4   5   72.41   29.53
 -10  -4  -5   65.43   34.50
  10  -4   5   64.23   32.53
 -10  -4  -5   87.47   32.09
 -10   4  -5   85.04   29.20
 -10   4  -5   79.65   24.45
  10   4   5   63.39   26.87
 -10   4  -5   72.17   24.45
  10   4   5   93.97   35.74
 -10   4  -5   86.08   25.95
  10   4   5   66.77   28.94
  12  -4   5   34.92   22.23
 -12  -4  -5   10.92   24.40
  12  -4   5   54.69   28.80
 -12  -4  -5   48.09   25.91
  12  -4   5   32.29   30.25
 -12  -4  -5   13.12   19.51
  12   4   5   30.18    8.52
 -12   4  -5   81.13   25.43
 -12   4  -5   14.74   21.19
 -12   4  -5   38.21   21.62
  12   4   5   41.32   25.79
  12   4   5   31.03   25.29
  12   4   5   10.39   25.82
 -12   4  -5   35.01   18.10
 -14  -4  -5   17.14   27.47
  14  -4   5    9.03   21.79
 -14  -4  -5   14.99   24.13
 -14  -4  -5   27.02   21.77
  14  -4   5   24.34   30.65
  14  -4   5   32.97   30.48
  14   4   5   34.89   29.72
 -14   4  -5   41.20   19.27
 -14   4  -5  -14.85   19.34
 -14   4  -5   67.90   26.50
  14   4   5  -14.95   17.31
 -14   4  -5   22.41   22.74
  14   4   5   29.29   26.17
  16  -4   5   31.57   34.13
  16  -4   5   11.96   26.39
 -16  -4  -5   13.62   25.63
  16  -4   5   16.46   25.27
 -16  -4  -5   47.35   24.32
 -16   4  -5    9.75   28.95
  16   4   5   10.63   25.17
 -16   4  -5   82.72   31.51
  16   4   5   56.15   28.71
 -16   4  -5   25.40   18.02
  16   4   5    9.00   24.58
  18  -4   5    7.37   27.25
 -18  -4  -5    5.46   19.25
  18  -4   5   30.84   33.14
 -18  -4  -5  -20.90   19.46
 -18   4  -5   14.62   32.80
  18   4   5   15.84   28.30
  18   4   5   37.21   31.32
 -18   4  -5   -2.06   15.79
 -18   4  -5   -8.58   23.13
  20  -4   5   23.56   31.33
  20  -4   5   41.17   37.66
 -20  -4  -5    2.58   25.48
 -20   4  -5    0.61   15.87
 -20   4  -5    1.30   27.04
  20   4   5   24.89   31.23
  20   4   5   22.74   33.88
 -20   4  -5   54.44   42.08
  22  -4   5   19.64   38.94
 -22  -4  -5    9.10   28.04
  22  -4   5   13.33   30.08
 -22   4  -5   25.67   18.61
 -22   4  -5   -4.10   25.96
  22   4   5   22.21   34.46
 -22   4  -5   35.85   41.81
  22   4   5   10.59   28.55
  24  -4   5    4.37   32.32
  24  -4   5    1.63   36.59
 -24  -4  -5   18.15   30.61
  24   4   5    8.83   32.57
 -24   4  -5    3.16   15.10
 -24   4  -5   -7.90   31.72
  24   4   5  -18.61   27.21
 -25  -5   5   24.83   31.56
 -25   5   5   87.35   33.14
  25   5  -5  100.92   39.03
 -23  -5   5   82.61   52.05
 -23  -5   5   80.53   35.33
  23  -5  -5  187.94   69.22
  23  -5  -5   98.83   53.28
  23   5  -5   92.66   30.93
 -23   5   5   93.56   34.04
  23   5  -5   74.38   40.07
  23   5  -5  136.34   38.10
 -21  -5   5   62.52   45.10
 -21  -5   5  156.16   39.25
  21  -5  -5  188.66   67.77
  21  -5  -5  140.08   67.70
  21   5  -5  174.89   52.15
 -21   5   5  187.47   44.05
  21   5  -5  113.46   37.25
  21   5  -5   85.60   34.40
 -19  -5   5  159.82   44.64
  19  -5  -5  147.42   66.29
  19  -5  -5  219.72   72.72
 -19  -5   5  212.78   57.62
  19   5  -5  197.00   47.83
  19   5  -5  223.54   57.78
  19   5  -5  308.71   42.93
 -19   5   5  216.43   49.35
 -17  -5   5  183.32   42.88
 -17  -5   5  156.30   51.29
  17  -5  -5  260.31   74.35
  17  -5  -5  307.07   89.75
 -17   5   5  188.12   44.28
  17   5  -5  174.63   49.62
  17   5  -5  261.57   39.58
  17   5  -5  148.05   43.00
 -17   5   5  231.09   70.14
 -15  -5   5  250.58   66.16
 -15  -5   5  300.72   60.65
  15  -5  -5  371.33   88.93
  15  -5  -5  489.02  110.14
 -15   5   5  320.57   82.36
 -15   5   5  312.60   51.56
  15   5  -5  289.95   48.02
  15   5  -5  267.87   59.50
  15   5  -5  232.63   52.47
  13  -5  -5  752.10  114.32
  13  -5  -5  569.44  122.96
 -13  -5   5  510.70   88.50
  13  -5  -5  489.07   80.96
 -13  -5   5  417.14   87.41
 -13  -5   5  606.71   80.08
  13   5  -5  502.85   79.61
  13   5  -5  639.16   90.57
 -13   5   5  720.62  130.07
 -13   5   5  689.69   82.91
  13   5  -5  456.75   75.86
 -11  -5   5  563.37   83.36
  11  -5  -5  525.37   77.11
 -11  -5   5  485.65   72.21
  11  -5  -5  579.32  115.90
  11  -5  -5  742.19  108.09
 -11  -5   5  368.71   81.81
  11   5  -5  633.71   83.99
  11   5  -5  517.08   71.23
 -11   5   5  465.69   86.45
  11   5  -5  474.97   68.88
 -11   5   5  403.96   88.39
  -9  -5   5  758.44  107.55
   9  -5  -5  974.14  131.46
   9  -5  -5  678.15  100.48
   9  -5  -5  767.39  126.81
  -9  -5   5  559.37  107.68
  -9  -5   5  754.79   97.63
  -9   5   5  633.21  111.89
   7  -5  -5  727.23  124.26
  -7  -5   5  785.71  100.69
   7  -5  -5  665.96  103.42
   7  -5  -5  811.76  127.22
  -7  -5   5  644.84  107.88
  -7   5   5  655.14  112.62
  -7   5   5  750.39  100.70
   7   5  -5  851.64  107.54
  -5  -5   5  687.01   99.01
  -5  -5   5  690.79  106.84
   5  -5  -5  603.14  101.50
   5  -5  -5  749.06  124.23
   5  -5  -5  801.99  124.38
  -5   5   5  620.05  110.90
   5   5  -5  869.39  106.22
  -5   5   5  856.29  100.61
   3  -5  -5 1159.39  175.59
  -3  -5   5 1137.33  151.78
   3  -5  -5 1213.43  174.49
   3  -5  -5 1084.20  154.46
  -3  -5   5 1031.49  158.69
   3  -5  -5 1162.03  156.89
   3   5  -5 1332.97  166.27
  -3   5   5 1169.38  164.42
   1  -5  -5 1201.88  204.85
  -1  -5   5 1562.35  196.19
   1  -5  -5 1393.52  190.78
   1  -5  -5 1567.84  190.83
  -1  -5   5 1360.26  186.25
   1  -5  -5 1298.54  203.15
   1   5  -5 1234.00  184.34
  -1   5   5 1630.22  187.53
  -1   5   5 1712.96  201.43
   1  -5   5 1206.73  158.51
  -1  -5  -5 1035.76  160.99
  -1  -5  -5  945.07  170.67
   1  -5   5 1302.78  167.97
  -1  -5  -5 1283.24  163.80
   1   5   5 1234.90  168.80
   1   5   5 1351.73  159.80
  -3  -5  -5  793.01  134.40
  -3  -5  -5  833.22  125.23
   3  -5   5 1004.26  132.49
   3  -5   5  966.22  122.85
  -3  -5  -5  831.05  125.75
   3   5   5 1052.80  133.53
  -5  -5  -5  786.85  117.67
   5  -5   5  791.57  122.43
  -5  -5  -5  904.17  118.99
   5  -5   5  765.67  113.74
  -5  -5  -5  652.38  123.26
   5   5   5  972.21  124.06
   5   5   5  881.75  114.84
  -5   5  -5  851.28  111.61
  -7  -5  -5  874.90  122.33
  -7  -5  -5  689.94  128.85
  -7  -5  -5  798.10  122.75
   7  -5   5  933.71  128.42
   7  -5   5  833.82  120.40
   7  -5   5  833.08  117.96
   7   5   5  785.30  122.82
   7   5   5 1053.12  129.55
  -7   5  -5  893.14  116.89
   7   5   5  937.93  120.31
  -9  -5  -5  718.50  113.16
  -9  -5  -5  587.45  118.00
   9  -5   5 1006.79  118.61
   9  -5   5  732.56  111.39
   9  -5   5  717.48  107.44
  -9  -5  -5  806.02  112.15
   9   5   5  704.08  108.86
  -9   5  -5  828.04  107.71
   9   5   5  662.71  111.23
  -9   5  -5  771.76  106.37
   9   5   5 1013.93  119.54
 -11  -5  -5  515.34   80.54
  11  -5   5  482.48   82.55
  11  -5   5  694.13   88.50
 -11  -5  -5  502.28   81.86
 -11  -5  -5  476.92  100.86
  11  -5   5  439.53   75.86
 -11   5  -5  438.71   72.62
 -11   5  -5  511.31   77.04
  11   5   5  458.36   81.11
  11   5   5  549.92   65.37
  11   5   5  431.24   76.86
 -13  -5  -5  704.43   93.55
  13  -5   5  491.73   82.14
  13  -5   5  659.08   92.33
 -13  -5  -5  446.45  105.68
 -13  -5  -5  591.79   86.44
 -13   5  -5  462.37   75.99
 -13   5  -5  476.44   76.39
 -13   5  -5  496.48   77.72
 -13   5  -5  593.04   83.86
  13   5   5  517.16   88.84
  13   5   5  533.13   84.21
 -15  -5  -5  227.49   65.31
  15  -5   5  214.63   56.45
  15  -5   5  200.16   47.60
 -15  -5  -5  274.16   51.47
  15   5   5  306.44   65.92
  15   5   5  233.76   54.25
 -15   5  -5  177.92   44.89
 -15   5  -5  185.05   41.24
 -15   5  -5  189.35   43.72
  17  -5   5  353.63   85.64
 -17  -5  -5  301.07   58.14
 -17  -5  -5  171.60   55.91
  17  -5   5  209.02   53.89
  17  -5   5  141.14   45.19
  17   5   5  237.85   57.73
 -17   5  -5  124.17   36.10
  17   5   5  255.44   59.91
 -17   5  -5  144.49   42.52
 -17   5  -5  200.17   46.07
  19  -5   5  136.50   42.80
  19  -5   5  136.13   48.45
 -19  -5  -5   88.35   43.15
  19   5   5  230.23   58.96
 -19   5  -5  140.53   40.08
 -19   5  -5  158.13   47.76
  19   5   5  203.24   56.22
 -19   5  -5  106.60   30.60
  21  -5   5  106.61   49.49
  21  -5   5   95.47   39.78
 -21  -5  -5  129.25   47.77
 -21   5  -5  149.37   47.12
 -21   5  -5   49.50   25.03
  21   5   5  128.25   47.39
  21   5   5  125.43   48.05
 -21   5  -5   76.87   35.64
  23  -5   5   25.59   38.70
 -23  -5  -5   49.90   42.25
  23  -5   5   67.02   38.82
  23   5   5   36.19   35.99
 -23   5  -5   12.00   31.39
  23   5   5   69.39   39.09
 -23   5  -5   22.24   21.24
 -23   5  -5   63.54   41.49
  22  -6  -5    8.78   42.51
 -22  -6   5    6.55   26.87
  22  -6  -5   -5.24   41.75
 -22  -6   5   17.14   35.03
  22   6  -5   26.39   31.24
 -22   6   5    0.96   21.61
  22   6  -5   14.30   24.87
  22   6  -5   -3.36    9.81
  20  -6  -5   55.33   54.14
 -20  -6   5   20.49   34.25
  20  -6  -5   20.31   45.07
 -20  -6   5   30.49   27.11
  20   6  -5   -0.11   29.36
  20   6  -5   54.04   25.36
  20   6  -5  -19.03   10.87
 -20   6   5    8.61   22.44
 -18  -6   5   29.95   32.62
  18  -6  -5   24.84   41.34
 -18  -6   5   30.39   25.68
  18  -6  -5   18.83   43.87
 -18   6   5   25.55   41.38
 -18   6   5    9.21   20.94
  18   6  -5   24.99   21.52
  18   6  -5   54.72   19.24
  18   6  -5   27.95   31.21
 -16  -6   5  100.86   38.74
  16  -6  -5   -0.90   33.77
 -16  -6   5   36.58   35.45
 -16  -6   5   28.56   22.41
  16  -6  -5   63.13   47.35
  16   6  -5   57.53   31.91
 -16   6   5    6.91   19.31
 -16   6   5   -4.36   34.40
  16   6  -5   12.32   13.90
  16   6  -5    4.23   14.40
 -14  -6   5   -5.09   19.57
  14  -6  -5   58.12   48.43
  14  -6  -5   28.68   37.35
 -14  -6   5   30.64   32.86
 -14   6   5    2.84   33.18
  14   6  -5   30.37   27.29
 -14   6   5   13.77   18.32
  12  -6  -5   65.58   42.01
  12  -6  -5   36.53   44.53
 -12  -6   5   28.47   18.64
  12  -6  -5   55.27   19.25
 -12  -6   5   19.95   26.46
 -12  -6   5   45.29   31.96
 -12   6   5   44.15   35.83
 -12   6   5   18.48   18.19
  12   6  -5   27.44   24.02
  10  -6  -5   26.31   18.88
 -10  -6   5   37.92   18.09
  10  -6  -5   81.36   49.07
  10  -6  -5   71.55   43.90
 -10  -6   5   35.69   25.88
 -10  -6   5  103.17   33.12
 -10   6   5   29.18   33.59
 -10   6   5   31.54   18.08
 -10   6   5   34.40   37.62
  10   6  -5   45.73   23.46
   8  -6  -5   61.06   23.16
  -8  -6   5   57.59   19.58
   8  -6  -5   83.86   43.63
  -8  -6   5   62.46   28.55
   8  -6  -5   69.82   49.44
  -8  -6   5  121.46   33.03
  -8   6   5  106.81   40.87
   8   6  -5   86.55   27.33
  -8   6   5   77.96   40.53
   6  -6  -5   19.74   16.57
  -6  -6   5    8.47   13.53
   6  -6  -5   -3.41   26.29
   6  -6  -5   15.35   28.05
  -6  -6   5   30.82   19.92
  -6  -6   5   42.00   24.52
  -6   6   5   15.84   12.10
  -6   6   5    4.24   23.69
  -6   6   5   13.53   25.73
   4  -6  -5   38.59   20.09
  -4  -6   5   42.82   27.18
   4  -6  -5   42.57   34.31
   4  -6  -5   19.48   31.17
  -4  -6   5   43.10   21.11
   4  -6  -5   33.48   19.69
  -4  -6   5   26.80   15.59
  -4   6   5    5.61   22.49
   4   6  -5   42.76   13.97
  -4   6   5   32.98   14.26
   4   6  -5   45.77   19.38
  -4   6   5   76.70   33.36
   2  -6  -5  198.12   45.48
   2  -6  -5  243.79   69.75
  -2  -6   5  272.54   46.70
  -2  -6   5  224.63   36.89
   2  -6  -5  245.74   46.95
   2  -6  -5  286.76   74.55
  -2   6   5  222.06   52.25
   2   6  -5  185.86   32.69
   2   6  -5  285.78   39.52
  -2   6   5  152.70   33.92
   0  -6  -5  130.67   34.12
   0  -6  -5  154.88   52.81
   0  -6  -5   88.54   30.85
   0  -6  -5   89.45   43.63
   0  -6   5  185.27   41.68
   0  -6   5  110.38   25.61
   0   6  -5  176.54   31.62
   0   6   5  112.13   26.43
   0   6  -5   92.91   21.27
   0   6   5  125.28   39.71
  -2  -6  -5   -8.06   17.64
   2  -6   5   81.43   28.31
   2  -6   5   21.55   14.71
  -2  -6  -5   10.97   25.20
  -2  -6  -5    4.93   14.77
  -2  -6  -5   32.21   18.78
   2   6   5   40.13   26.48
  -2   6  -5   69.23   20.80
  -2   6  -5   39.93   13.43
   2   6   5   36.42   16.77
  -4  -6  -5   47.71   22.58
   4  -6   5   35.60   18.47
  -4  -6  -5    6.76   23.71
  -4  -6  -5   11.95   17.94
   4  -6   5   41.43   30.05
  -4  -6  -5   28.13   26.92
   4   6   5   70.14   28.97
  -4   6  -5   55.59   16.41
  -4   6  -5   32.95   19.88
   4   6   5   30.04   15.95
  -6  -6  -5   78.56   26.65
   6  -6   5   79.76   26.20
   6  -6   5  102.36   35.41
  -6  -6  -5   27.33   29.71
  -6  -6  -5  117.30   34.95
   6   6   5   51.32   22.25
  -6   6  -5   72.65   21.78
  -6   6  -5   26.84   23.14
   6   6   5   67.87   29.68
  -8  -6  -5   10.72   22.84
   8  -6   5   42.79   19.99
   8  -6   5   11.29   26.15
  -8  -6  -5   25.88   21.84
   8  -6   5   78.97   27.90
  -8  -6  -5   12.40   27.36
  -8  -6  -5   71.16   30.14
   8   6   5   38.92   13.77
  -8   6  -5   24.67   22.44
   8   6   5   26.23   25.43
  -8   6  -5   48.85   20.16
   8   6   5   40.09   25.48
   8   6   5   64.84   24.12
  10  -6   5   48.23   32.19
 -10  -6  -5   35.60   30.06
  10  -6   5   35.43   20.61
 -10  -6  -5   57.95   24.71
 -10  -6  -5    8.35   21.59
  10  -6   5   45.88   27.66
 -10  -6  -5   26.19   27.05
 -10   6  -5   13.61   22.31
 -10   6  -5   47.78   23.76
  10   6   5   26.43   10.97
  10   6   5   65.94   24.89
 -10   6  -5   54.17   22.68
  10   6   5   21.51   23.18
  10   6   5   34.78   27.55
  12  -6   5   41.72   34.09
 -12  -6  -5    8.49   19.15
 -12  -6  -5   12.75   25.57
  12  -6   5    0.16   18.15
  12  -6   5   31.76   28.46
 -12  -6  -5   30.56   23.21
 -12   6  -5    8.71   21.74
  12   6   5   16.67    6.82
  12   6   5   24.95   21.42
 -12   6  -5   31.84   22.88
  12   6   5   16.52   26.09
  12   6   5   18.56   22.88
 -14  -6  -5   14.00   28.64
  14  -6   5   33.06   31.80
  14  -6   5   11.32   32.59
 -14  -6  -5   10.07   21.87
  14  -6   5   25.77   23.25
 -14   6  -5   22.88   22.76
  14   6   5   24.83   26.39
 -14   6  -5   41.45   25.93
  14   6   5   21.65   29.88
  14   6   5   21.58   22.47
  16  -6   5  -17.90   26.16
  16  -6   5   45.95   28.66
  16  -6   5   12.29   34.69
 -16  -6  -5   17.69   23.48
 -16  -6  -5   -2.21   26.95
  16   6   5   13.53   27.82
  16   6   5   -3.65   19.04
 -16   6  -5   29.56   22.54
  16   6   5    4.06   25.53
  18  -6   5    1.13   24.75
 -18  -6  -5  -15.08   23.22
  18  -6   5   12.76   32.82
 -18  -6  -5   53.50   25.65
 -18   6  -5   17.05   22.44
  18   6   5   34.63   30.50
  18   6   5   10.15   26.13
  20  -6   5   26.52   31.79
  20  -6   5  -11.75   31.70
 -20  -6  -5   30.59   35.71
 -20   6  -5  -13.08   16.88
 -20   6  -5    3.62   21.09
 -20   6  -5   -3.25   13.29
  20   6   5   27.22   32.55
  20   6   5   15.85   27.93
  22  -6   5  -13.82   29.66
 -22  -6  -5   12.82   33.77
  22  -6   5   19.36   41.64
  22   6   5  -12.09   23.89
  22   6   5   15.13   36.39
 -22   6  -5    3.84   20.70
 -22   6  -5   -4.76   15.50
 -22   6  -5   -4.40   17.49
 -21  -7   5  105.83   43.93
  21  -7  -5  130.59   67.02
  21  -7  -5  101.64   56.27
 -21  -7   5   73.40   32.96
 -21   7   5  112.58   36.24
 -21   7   5   50.44   27.19
  19  -7  -5   13.40   52.01
 -19  -7   5   92.25   41.81
  19  -7  -5  148.19   62.45
 -19  -7   5   55.80   30.88
 -19   7   5  113.95   34.51
 -19   7   5   37.72   26.30
 -19   7   5  162.18   58.16
  17  -7  -5  198.94   67.47
  17  -7  -5  133.33   65.21
 -17  -7   5  123.78   36.76
 -17  -7   5  161.91   51.10
 -17   7   5   66.10   28.99
  17   7  -5  225.02   40.74
 -17   7   5  135.40   37.10
 -17   7   5  125.19   54.15
  15  -7  -5  109.37   60.75
 -15  -7   5  132.13   47.70
  15  -7  -5  267.30   72.50
 -15  -7   5  172.99   39.99
 -15  -7   5  202.43   57.62
 -15   7   5  218.50   42.15
  15   7  -5  155.48   41.35
 -15   7   5  136.67   57.90
  13  -7  -5  363.04   98.86
  13  -7  -5  264.24   73.44
 -13  -7   5  152.76   51.12
 -13  -7   5  160.01   50.79
 -13   7   5  383.90   76.53
  13   7  -5  174.86   43.57
 -13   7   5  240.19   41.80
  11  -7  -5  262.20   45.00
 -11  -7   5  203.87   39.44
 -11  -7   5  127.54   46.74
 -11  -7   5  248.92   60.59
  11  -7  -5  264.52   80.97
  11  -7  -5  327.21   78.74
 -11   7   5  266.48   41.37
 -11   7   5  400.36   73.68
  11   7  -5  151.34   40.68
   9  -7  -5  274.73   85.79
   9  -7  -5  284.57   77.49
  -9  -7   5  243.59   53.15
   9  -7  -5  272.88   50.50
  -9  -7   5  246.56   45.72
  -9  -7   5  304.67   65.69
  -9   7   5  370.68   49.09
  -9   7   5  464.82   82.36
   7  -7  -5  424.29   92.21
   7  -7  -5  253.71   53.60
  -7  -7   5  337.19   49.71
  -7  -7   5  381.45   59.64
   7  -7  -5  421.06   99.22
  -7   7   5  186.07   73.01
  -7   7   5  329.27   62.60
  -7   7   5  342.56   51.16
   7   7  -5  342.76   52.10
  -5  -7   5  292.51   47.64
   5  -7  -5  303.38   74.30
   5  -7  -5  416.77   97.72
  -5  -7   5  214.59   36.26
   5  -7  -5  279.30   46.60
   5   7  -5  181.31   33.12
   5   7  -5  205.74   35.94
  -5   7   5  112.74   51.83
  -5   7   5  322.57   60.74
   3  -7  -5  428.37   95.12
   3  -7  -5  327.50   56.68
  -3  -7   5  259.61   48.45
   3  -7  -5  321.65   54.94
  -3  -7   5  354.02   59.24
   3  -7  -5  350.30   83.83
  -3   7   5  187.73   66.45
  -3   7   5  386.88   49.41
  -3   7   5  438.41   60.67
   1  -7  -5  525.82   76.95
   1  -7  -5  502.52   79.23
  -1  -7   5  403.61   70.55
   1  -7  -5  464.85  107.16
  -1  -7   5  609.26   81.33
   1  -7  -5  407.30   91.92
  -1   7   5  557.16   71.24
  -1   7   5  626.30   80.98
  -1  -7  -5  449.25   69.93
  -1  -7  -5  283.18   84.20
  -1  -7  -5  441.46   68.39
   1  -7   5  428.35   62.50
   1  -7   5  487.41   74.26
  -1  -7  -5  442.94   95.28
   1   7   5  463.03   61.60
   1   7   5  379.87   68.17
   3  -7   5  283.05   43.37
  -3  -7  -5  239.28   65.96
  -3  -7  -5  160.37   58.73
   3  -7   5  356.37   56.91
  -3  -7  -5  369.63   63.98
  -3  -7  -5  245.56   48.49
   3   7   5  218.91   39.76
   3   7   5  223.49   40.14
   3   7   5  323.86   49.19
   5  -7   5  177.58   46.89
  -5  -7  -5  114.54   48.09
  -5  -7  -5  270.47   46.56
  -5  -7  -5  224.53   44.76
   5  -7   5  246.58   42.02
   5   7   5  229.25   36.32
   5   7   5  210.96   37.74
   5   7   5  306.05   52.49
  -5   7  -5  219.25   34.74
   7  -7   5  344.29   56.37
   7  -7   5  442.54   61.20
  -7  -7  -5  358.79   60.74
  -7  -7  -5  283.09   78.31
  -7  -7  -5  392.73   62.93
   7   7   5  344.83   52.41
  -7   7  -5  283.80   49.84
  -7   7  -5  227.30   56.36
   9  -7   5  190.87   51.47
  -9  -7  -5  213.66   66.52
  -9  -7  -5  361.44   58.33
  -9  -7  -5  301.68   55.29
   9  -7   5  377.68   60.45
   9  -7   5  249.56   48.35
   9   7   5  262.01   47.86
  -9   7  -5  265.60   47.58
  -9   7  -5  187.81   48.97
   9   7   5  406.92   56.65
   9   7   5  311.57   41.44
  11  -7   5  291.01   57.77
 -11  -7  -5  108.65   51.59
  11  -7   5  222.60   45.27
 -11  -7  -5  314.21   59.56
  11  -7   5  223.25   52.08
 -11  -7  -5  194.15   61.40
  11   7   5  216.14   32.44
 -11   7  -5  276.43   46.01
  11   7   5  162.92   49.85
 -11   7  -5  211.57   47.89
  11   7   5  330.75   52.63
  11   7   5  237.92   47.30
 -13  -7  -5  234.55   48.98
 -13  -7  -5  127.40   49.46
  13  -7   5  156.07   44.11
  13  -7   5  154.60   36.65
  13   7   5  172.01   46.19
  13   7   5  158.02   39.34
 -13   7  -5   56.38   35.45
 -13   7  -5  106.33   36.01
  15  -7   5   94.10   33.47
  15  -7   5  218.95   53.15
  15  -7   5   76.60   40.12
 -15  -7  -5  173.50   43.76
 -15  -7  -5   19.31   32.06
 -15  -7  -5  125.26   48.40
  15   7   5  151.77   46.36
  15   7   5  144.83   39.65
 -15   7  -5   86.00   33.39
 -17  -7  -5  135.19   49.57
 -17  -7  -5  174.75   44.03
  17  -7   5   59.46   42.64
  17   7   5  126.70   45.05
 -17   7  -5   55.52   33.70
  17   7   5  138.85   42.41
  17   7   5  280.80   54.61
 -19  -7  -5   92.08   33.30
  19  -7   5   45.75   33.38
 -19  -7  -5   22.77   35.04
  19  -7   5   21.96   40.20
 -19   7  -5   22.89   24.99
  19   7   5   87.82   35.04
  19   7   5   90.93   39.83
 -21  -7  -5   -2.42   29.63
  21  -7   5   68.09   44.34
  21  -7   5   54.30   35.45
  21   7   5   47.24   31.81
 -21   7  -5   35.35   27.94
  21   7   5  108.86   43.38
 -20  -8   5   13.93   30.25
 -20   8   5    8.26   21.48
 -18  -8   5   11.07   29.43
  18  -8  -5    1.00   47.83
 -18  -8   5   21.15   25.75
  18  -8  -5   46.80   46.61
 -18   8   5   -7.21   18.14
  18   8  -5    0.69    8.61
 -18   8   5   -1.34   21.48
 -18   8   5  -30.25   25.36
 -16  -8   5   14.97   27.11
  16  -8  -5    1.62   37.68
  16  -8  -5   31.81   48.51
 -16  -8   5   12.36   24.11
 -16   8   5   17.77   33.40
 -16   8   5    5.15   20.74
 -16   8   5   -2.84   17.97
  16   8  -5    2.90    8.94
 -14  -8   5   18.66   28.29
  14  -8  -5   58.31   56.31
  14  -8  -5   22.19   39.18
 -14  -8   5   15.06   22.74
 -14  -8   5   33.40   35.30
 -14   8   5    4.33   31.61
 -14   8   5   -3.70   18.23
 -14   8   5    3.47   17.34
  12  -8  -5   65.62   55.96
 -12  -8   5   58.62   32.24
  12  -8  -5   55.33   42.98
 -12  -8   5   47.58   28.20
 -12   8   5   -0.91   21.16
 -12   8   5   10.19   30.61
 -12   8   5   62.13   21.61
  10  -8  -5    7.64   32.51
 -10  -8   5   48.68   20.36
 -10  -8   5  118.06   38.33
 -10  -8   5   44.88   25.33
  10  -8  -5   45.85   47.55
 -10   8   5   62.04   29.84
 -10   8   5   27.25   17.46
  10   8  -5   70.17   18.79
 -10   8   5    1.96   18.66
   8  -8  -5   21.63   19.86
  -8  -8   5   51.05   27.43
  -8  -8   5   24.29   21.29
   8  -8  -5   69.36   39.59
   8  -8  -5  -18.35   33.13
  -8  -8   5   18.23   16.14
  -8   8   5   25.80   16.10
   8   8  -5   43.12   12.64
  -8   8   5    4.03   16.70
  -8   8   5   16.81   21.89
   6  -8  -5    5.17   29.39
   6  -8  -5   10.45   36.04
  -6  -8   5    1.76   12.40
  -6  -8   5   39.15   16.54
  -6  -8   5   60.67   28.90
   6  -8  -5   21.77   20.68
   6  -8  -5   14.05   19.12
  -6   8   5   12.27   13.54
  -6   8   5   -3.56   16.70
  -6   8   5   22.83   20.68
   4  -8  -5   50.89   41.54
   4  -8  -5   25.98   21.35
  -4  -8   5   40.07   23.71
   4  -8  -5   41.27   34.10
  -4  -8   5   16.02   14.40
   4  -8  -5   43.76   23.03
  -4   8   5   19.90   13.18
  -4   8   5   45.45   19.48
  -4   8   5   13.30   17.15
   2  -8  -5   82.09   40.92
  -2  -8   5   71.44   19.25
   2  -8  -5   87.32   28.25
  -2  -8   5  113.69   33.27
   2  -8  -5   45.03   24.20
   2  -8  -5   64.63   38.36
  -2   8   5   88.75   22.60
  -2   8   5   19.81   18.54
   0  -8  -5   17.42   31.77
   0  -8   5   83.60   31.18
   0  -8   5   58.10   18.69
   0  -8  -5   43.50   33.14
   0  -8  -5   89.05   28.83
   0  -8  -5   42.17   23.39
   0   8   5   40.71   20.26
   0   8   5   54.03   19.88
  -2  -8  -5   14.94   19.44
  -2  -8  -5   14.61   27.52
   2  -8   5    5.08   13.57
  -2  -8  -5   19.50   21.30
  -2  -8  -5    6.62   25.30
   2  -8   5   23.00   26.34
   2   8   5   13.07   15.41
   2   8   5   34.13   16.22
   2   8   5    9.87   10.56
   4  -8   5   34.21   18.54
  -4  -8  -5   15.84   26.66
  -4  -8  -5   15.45   20.24
  -4  -8  -5    7.52   23.67
  -4  -8  -5   15.69   22.16
   4  -8   5   38.63   27.96
   4   8   5    4.93   14.54
   4   8   5   17.41   11.92
   4   8   5   41.38   18.36
  -6  -8  -5   54.98   27.02
  -6  -8  -5    5.12   22.43
  -6  -8  -5  109.09   35.96
   6  -8   5   73.25   25.06
  -6  -8  -5   15.43   29.23
   6   8   5   27.58   14.36
  -6   8  -5   47.36   27.95
   6   8   5   43.85   20.24
   6   8   5   35.03   16.56
  -8  -8  -5   35.79   28.64
  -8  -8  -5   22.80   30.45
   8  -8   5   36.25   25.95
  -8  -8  -5   17.20   22.20
   8  -8   5   51.32   29.43
   8   8   5   59.07   21.62
   8   8   5   21.42   15.70
  -8   8  -5   33.49   27.91
   8   8   5   18.39   14.51
  10  -8   5   -3.14   24.16
 -10  -8  -5   -1.29   18.83
 -10  -8  -5    1.82   21.34
 -10  -8  -5   23.87   31.95
  10  -8   5   41.21   30.66
  10  -8   5   29.81   20.21
  10   8   5    8.77   11.29
 -10   8  -5   25.40   20.66
 -10   8  -5   19.28   18.12
  10   8   5   19.32   15.90
  10   8   5   29.50   22.59
 -10   8  -5   10.42   26.44
 -12  -8  -5   -2.67   28.21
  12  -8   5   12.81   35.85
 -12  -8  -5    6.49   22.09
  12  -8   5   14.51   29.25
  12  -8   5   37.82   21.64
 -12  -8  -5   13.38   22.50
  12   8   5   20.85    9.41
 -12   8  -5  -16.01   13.97
  12   8   5    7.25   16.34
  12   8   5   -1.06   22.35
 -12   8  -5   -6.92   24.29
 -12   8  -5   30.94   23.41
  12   8   5    1.56   20.59
 -14  -8  -5    6.40   24.13
  14  -8   5   43.35   40.37
  14  -8   5   17.40   31.91
  14  -8   5   30.57   23.12
 -14  -8  -5   10.79   24.40
 -14  -8  -5   -7.60   23.65
 -14   8  -5   16.98   28.17
  14   8   5   12.68   22.76
  14   8   5   27.65   28.86
  14   8   5   17.21   19.56
  16  -8   5   32.72   25.25
 -16  -8  -5    9.44   25.54
  16  -8   5   -0.33   33.08
 -16  -8  -5  -20.76   21.09
 -16  -8  -5   -3.32   16.27
  16  -8   5  -22.49   41.25
  16   8   5   27.63   23.70
  16   8   5    6.51   25.98
 -16   8  -5   25.24   28.71
  16   8   5   19.61   23.35
 -18  -8  -5   -8.77   18.60
 -18  -8  -5   10.03   25.14
  18  -8   5   -8.49   34.83
 -18  -8  -5    1.24   31.83
  18  -8   5   15.68   27.60
  18   8   5    8.24   21.71
  18   8   5   67.50   24.93
 -18   8  -5  -21.84   24.93
  18   8   5   29.35   30.64
 -17  -9   5   50.01   28.42
 -17   9   5    6.81   17.56
 -17   9   5    9.59    8.02
 -15  -9   5   74.58   36.17
  15  -9  -5  133.08   70.05
 -15  -9   5  111.78   33.69
  15  -9  -5  185.75   63.23
 -15   9   5   89.24   31.22
  13  -9  -5  338.73   93.96
  13  -9  -5  176.55   57.94
 -13  -9   5  183.50   56.41
 -13  -9   5  107.78   40.38
 -13  -9   5  135.57   35.03
 -13   9   5  125.21   36.12
  11  -9  -5  223.11   77.82
  11  -9  -5  198.39   59.75
 -11  -9   5  224.72   55.27
 -11   9   5  172.96   42.64
   9  -9  -5  261.03   71.18
   9  -9  -5  319.96   89.57
  -9  -9   5  197.53   58.98
  -9   9   5  305.36   49.29
  -7  -9   5  246.82   61.85
   7  -9  -5  383.02  100.07
  -7  -9   5  353.73   49.26
   7  -9  -5  322.46   60.65
   7  -9  -5  366.78   82.37
  -7   9   5  259.83   51.43
   5  -9  -5  385.41   95.51
   5  -9  -5  256.70   52.95
   5  -9  -5  352.87   86.70
   5  -9  -5  252.97   71.17
  -5  -9   5  241.11   56.10
  -5  -9   5  248.10   41.78
  -5   9   5  308.31   53.58
   3  -9  -5  346.57   57.09
   3  -9  -5  301.80   78.29
  -3  -9   5  285.22   46.99
   3  -9  -5  335.60   88.35
   3  -9  -5  353.19   59.54
  -3  -9   5  326.75   60.00
  -3   9   5  305.81   52.04
   1  -9  -5  316.38   82.61
   1  -9  -5  279.56   85.32
  -1  -9   5  356.70   68.85
   1  -9  -5  420.69   67.44
   1  -9  -5  503.10   66.62
  -1  -9   5  357.31   55.77
  -1   9   5  403.07   60.43
  -1  -9  -5  368.74   85.89
   1  -9   5  354.22   62.33
  -1  -9  -5  416.14   59.60
  -1  -9  -5  371.59   61.80
   1  -9   5  284.58   48.82
  -1  -9  -5  188.89   68.42
   1   9   5  361.97   53.82
  -3  -9  -5  357.57   61.04
   3  -9   5  365.87   59.62
  -3  -9  -5  290.49   73.81
  -3  -9  -5  301.31   57.12
  -3  -9  -5  214.66   68.44
   3  -9   5  302.39   48.65
   3   9   5  282.46   49.04
  -5  -9  -5  370.12   61.90
  -5  -9  -5  254.42   75.54
   5  -9   5  286.20   52.25
   5  -9   5  362.33   59.27
  -5   9  -5  242.12   60.30
   5   9   5  362.11   52.19
   7  -9   5  283.95   47.92
  -7  -9  -5  161.23   58.78
  -7  -9  -5  222.92   62.69
  -7   9  -5  188.59   49.40
  -9  -9  -5  367.21   62.85
  -9  -9  -5  199.35   73.72
   9  -9   5  431.88   62.89
   9  -9   5  262.23   62.32
   9   9   5  296.71   48.13
   9   9   5  317.93   45.19
 -11  -9  -5  237.93   72.09
  11  -9   5  211.85   56.80
 -11  -9  -5  249.85   56.29
  11  -9   5  380.95   62.81
 -11   9  -5  130.28   49.39
  11   9   5  254.33   37.81
  11   9   5  255.70   36.73
 -13  -9  -5  130.16   51.52
  13  -9   5  137.29   34.48
  13  -9   5  129.76   47.06
 -13  -9  -5   87.64   43.64
  13   9   5  172.86   27.57
 -13   9  -5   83.98   39.27
  15  -9   5  202.67   52.15
 -15  -9  -5  165.59   59.08
  15  -9   5   73.97   31.24
  15  -9   5  208.43   51.03
 -15  -9  -5   66.95   40.58
 -15   9  -5   26.46   36.12
  15   9   5  143.20   41.66
 -12 -10   5   11.90   20.97
  12 -10  -5   -0.81   45.82
 -12 -10   5    4.76   33.46
  12 -10  -5   15.49   34.46
 -12 -10   5   38.71   24.91
 -12  10   5  -11.67   18.42
  10 -10  -5   33.01   37.90
  10 -10  -5   -1.26   24.18
  10 -10  -5   22.35   49.36
 -10 -10   5   55.77   39.08
 -10  10   5   10.19   19.81
   8 -10  -5   48.59   26.09
   8 -10  -5    9.73   32.05
  -8 -10   5   12.02   29.86
   8 -10  -5   72.31   57.88
  -8  10   5   -1.07   19.07
  -6 -10   5   17.82   28.39
   6 -10  -5   50.08   50.38
   6 -10  -5   -1.84   19.32
   6 -10  -5   28.62   36.38
  -6 -10   5   43.61   17.53
  -6  10   5   -9.76   16.88
   4 -10  -5   57.02   25.60
   4 -10  -5   46.02   35.31
  -4 -10   5   28.58   15.68
   4 -10  -5   31.98   42.18
  -4 -10   5   94.85   32.44
  -4  10   5    7.83   18.46
   2 -10  -5   16.53   22.30
  -2 -10   5    6.96   25.13
   2 -10  -5   29.31   32.39
   2 -10  -5   57.97   46.07
  -2 -10   5   20.84   14.28
  -2  10   5    7.59   18.59
   0 -10  -5    4.17   31.99
   0 -10  -5    9.77   21.80
   0 -10   5   33.99   26.73
   0 -10  -5   18.31   29.68
   0  10   5   -5.38   17.64
  -2 -10  -5   62.61   25.83
  -2 -10  -5   16.98   33.80
  -2 -10  -5   26.48   32.38
   2 -10   5   59.71   28.31
   2 -10   5   36.85   16.57
   2  10   5    9.50   19.49
   4 -10   5   34.98   19.05
  -4 -10  -5   35.61   31.79
  -4 -10  -5    0.00   27.62
  -4 -10  -5   13.80   23.27
   4  10   5   10.43   19.32
   6 -10   5   54.19   29.04
  -6 -10  -5   13.45   23.55
  -6 -10  -5    7.06   31.11
  -6 -10  -5   -2.63   23.85
   6 -10   5   60.53   23.11
   6  10   5   16.43   18.49
  -6  10  -5   30.92   32.02
  -8 -10  -5   22.85   35.06
   8 -10   5   66.28   28.52
  -8 -10  -5   12.99   24.74
   8 -10   5   80.62   33.98
  -8 -10  -5   10.29   28.20
  -8  10  -5   14.61   32.70
   8  10   5   10.18   16.86
  10 -10   5  133.69   38.40
  10 -10   5   90.93   34.48
 -10 -10  -5   32.89   37.17
 -10 -10  -5   12.09   25.40
 -10 -10  -5   17.59   29.23
 -10  10  -5  -11.62   32.73
  10  10   5   22.74   12.49
  12 -10   5   51.38   33.88
 -12 -10  -5   41.41   30.27
 -12 -10  -5    9.01   24.43
  12 -10   5   53.60   33.97
 -12 -10  -5    9.99   35.99
  -5 -11   5   85.40   38.19
   5 -11  -5  138.22   65.15
   5 -11  -5  185.30   42.57
   5 -11  -5  112.29   44.20
  -5  11   5  131.34   36.48
   3 -11  -5  100.97   59.85
   3 -11  -5  136.77   49.32
   3 -11  -5  156.96   38.83
  -3  11   5  121.63   34.82
   1 -11  -5  198.44   63.78
   1 -11  -5   95.72   44.60
  -1  11   5  148.38   36.09
  -1 -11  -5  174.68   41.36
  -1 -11  -5  130.48   47.96
  -1 -11  -5  122.93   54.13
   1  11   5  185.05   40.31
  -3 -11  -5  132.57   53.58
  -3 -11  -5  262.29   48.35
  -3 -11  -5  144.66   51.11
   3  11   5  193.09   43.11
  -5 -11  -5  126.33   44.59
  -5 -11  -5  109.84   48.86
   5 -11   5  104.66   33.87
   5 -11   5  110.55   27.59
  -5 -11  -5  200.17   42.19
   7 -11   5  124.02   40.30
  26   0  -6   69.55   53.38
  26   0  -6   10.28   43.90
 -26   0   6   26.77   27.24
  24   0  -6  141.15   61.29
 -24   0   6   64.93   31.17
  24   0  -6   71.35   55.77
  22   0  -6  105.88   54.18
 -22   0   6   51.13   25.71
  22   0  -6   65.76   47.40
  20   0  -6  108.44   52.99
 -20   0   6  139.98   37.18
  20   0  -6  140.46   56.68
 -18   0   6  200.03   64.21
  18   0  -6  272.79   75.09
  18   0  -6  405.24   86.14
 -16   0   6  288.14   47.90
  16   0  -6  296.90   75.88
  16   0  -6  308.46   75.03
  16   0  -6  270.31   48.03
 -16   0   6  212.11   65.02
 -14   0   6  122.50   45.37
  14   0  -6  227.10   44.21
 -14   0   6  217.93   37.19
 -14   0   6  185.02   58.52
  14   0  -6  192.00   58.87
  14   0  -6  175.20   60.96
  12   0  -6  276.39   68.01
 -12   0   6  194.19   52.23
 -12   0   6  249.37   39.45
  12   0  -6  221.02   62.82
  12   0  -6  219.50   43.53
 -12   0   6  125.25   46.67
 -10   0   6  233.58   38.90
  10   0  -6  243.83   61.54
 -10   0   6  184.73   54.20
 -10   0   6  189.87   57.51
  10   0  -6  182.51   40.48
  10   0  -6  300.37   68.32
   8   0  -6  515.44   87.19
   8   0  -6  466.42   71.30
   8   0  -6  551.56   91.32
  -8   0   6  501.62   84.06
  -8   0   6  380.32   94.64
  -8   0   6  503.02   71.33
   6   0  -6 1092.31  154.46
   6   0  -6 1074.78  151.26
  -6   0   6  908.32  147.12
  -6   0   6 1096.08  136.31
   6   0  -6  894.26  135.23
  -4   0   6  628.97  109.45
  -4   0   6  739.20   98.66
   4   0  -6  788.92  113.03
   4   0  -6  654.50  113.59
   4   0  -6  697.77   98.14
   2   0  -6  503.49   73.61
   2   0  -6  346.31   83.96
  -2   0   6  587.39   74.75
  -2   0   6  506.36   83.66
   2   0  -6  528.05   73.17
   2   0  -6  456.61   83.88
   0   0  -6  966.90  138.39
   0   0   6 1096.09  126.87
   0   0   6  771.42  131.85
   0   0  -6  841.30  123.98
   0   0  -6  888.10  124.19
   2   0   6 1289.50  175.56
  -2   0  -6 1076.53  174.41
   2   0   6 1354.44  165.59
  -2   0  -6 1185.39  163.77
  -2   0  -6 1193.86  163.97
   4   0   6  779.25  115.31
   4   0   6  889.82  126.33
  -4   0  -6  695.69  124.36
  -4   0  -6  815.83  115.14
  -4   0  -6  911.43  116.36
   6   0   6  557.20   87.99
   6   0   6  615.76   89.00
   6   0   6  710.23  100.58
  -6   0  -6  521.87   86.62
  -6   0  -6  484.68   94.86
  -6   0  -6  674.09   88.38
   8   0   6  229.41   46.68
   8   0   6  262.26   37.88
   8   0   6  276.69   56.16
  -8   0  -6  139.35   51.36
   8   0   6  311.20   66.31
  -8   0  -6  220.06   49.84
  -8   0  -6  289.99   46.16
  10   0   6  370.80   73.35
 -10   0  -6  289.43   49.28
 -10   0  -6  235.14   45.33
 -10   0  -6  158.29   53.61
  10   0   6  254.29   36.96
  10   0   6  208.77   48.97
  10   0   6  210.03   53.83
  12   0   6  375.98   67.73
 -12   0  -6  364.68   65.58
  12   0   6  527.75   78.56
  12   0   6  381.34   55.11
  12   0   6  401.91   70.74
 -12   0  -6  416.08   67.50
 -12   0  -6  299.22   79.93
  14   0   6  288.41   67.78
  14   0   6  293.64   43.89
 -14   0  -6  373.67   61.80
  14   0   6  303.93   59.99
 -14   0  -6  221.85   66.13
 -14   0  -6  297.47   56.46
  16   0   6  350.72   49.52
  16   0   6  374.70   76.41
  16   0   6  325.85   72.26
 -16   0  -6  213.10   69.73
 -16   0  -6  433.74   67.62
 -18   0  -6  100.41   45.74
  18   0   6  200.70   56.55
  18   0   6  130.73   44.00
  20   0   6  159.39   55.84
 -20   0  -6  122.10   52.10
  20   0   6   93.21   42.35
  22   0   6  114.99   52.20
  22   0   6  111.15   45.09
 -22   0  -6   82.82   49.32
  24   0   6   63.01   40.30
 -24   0  -6   26.40   38.67
  24   0   6   74.05   43.73
  26   0   6   62.07   48.70
  26   0   6   58.10   40.20
 -26   0  -6   15.73   38.52
 -25  -1   6   21.41   25.05
  25  -1  -6   12.47   43.72
  25  -1  -6   56.44   41.87
  25   1  -6    3.87   40.71
 -25   1   6    2.48   23.28
  25   1  -6   16.97   44.37
 -23  -1   6    1.59   22.23
  23  -1  -6   30.56   45.98
  23  -1  -6  -10.88   36.14
  23   1  -6   11.02   38.70
  23   1  -6   59.25   46.43
 -23   1   6    4.32   22.35
 -21  -1   6  -19.28   17.56
  21  -1  -6   33.32   40.70
  21  -1  -6   16.14   38.26
  21   1  -6   -6.67   32.01
 -21   1   6   -4.31   18.47
  21   1  -6   34.49   42.55
  19  -1  -6   40.48   41.92
  19  -1  -6   31.09   39.90
 -19  -1   6   34.77   23.70
 -19  -1   6   53.11   30.57
  19   1  -6   43.86   43.03
 -19   1   6   60.65   26.44
  19   1  -6   85.70   46.74
  17  -1  -6   39.54   38.72
 -17  -1   6   58.57   32.54
  17  -1  -6   54.69   40.60
  17   1  -6   25.69   20.20
  17   1  -6   -7.66   30.14
  17   1  -6   29.89   37.80
 -17   1   6   25.49   29.25
  15  -1  -6   24.39   34.75
  15  -1  -6   13.44   30.86
  15  -1  -6   13.28   16.66
 -15  -1   6    9.59   23.91
 -15  -1   6   73.38   33.46
 -15  -1   6   13.05   16.33
 -15   1   6    4.30   23.64
  15   1  -6   32.91   34.60
 -15   1   6   -1.82   24.58
  15   1  -6   -3.41   16.31
  15   1  -6    7.98   32.07
 -15   1   6    7.99   16.12
 -13  -1   6    5.55   25.29
 -13  -1   6   34.79   18.73
  13  -1  -6   37.68   18.82
  13  -1  -6   93.19   45.08
 -13  -1   6   35.21   30.50
  13  -1  -6  101.26   45.82
 -13   1   6   16.10   24.77
  13   1  -6   20.91   17.53
  13   1  -6   13.34   26.67
 -13   1   6   14.94   26.55
 -13   1   6   23.27   15.94
  13   1  -6   80.93   41.79
 -11  -1   6   -3.29   12.75
  11  -1  -6   -3.50   25.64
 -11  -1   6   11.25   22.81
  11  -1  -6  -17.20   18.75
  11  -1  -6    3.47   12.83
 -11  -1   6  -17.18   17.73
 -11   1   6   -8.62   18.51
 -11   1   6    1.15   23.75
  11   1  -6    1.03   24.10
 -11   1   6    8.83   13.49
  11   1  -6   27.99   29.77
  11   1  -6    9.44   15.21
   9  -1  -6   57.71   37.58
   9  -1  -6   36.11   34.06
   9  -1  -6   31.85   18.20
  -9  -1   6    5.81   21.42
  -9  -1   6   29.69   16.82
  -9  -1   6   14.48   23.63
   9   1  -6   31.87   29.70
  -9   1   6   44.44   17.96
   9   1  -6   76.13   37.07
  -9   1   6   68.69   33.48
  -9   1   6   36.36   29.49
   9   1  -6   14.49   15.57
  -7  -1   6  122.34   29.98
   7  -1  -6  207.23   57.57
   7  -1  -6  147.93   34.27
   7  -1  -6  205.53   58.30
  -7  -1   6   69.80   34.90
  -7  -1   6   80.84   38.42
  -7   1   6  175.86   51.73
   7   1  -6  220.60   57.41
   7   1  -6  137.31   32.31
  -7   1   6  103.48   28.07
   7   1  -6  197.93   52.92
  -7   1   6  108.94   43.46
   5  -1  -6   17.74   25.91
  -5  -1   6   19.01   24.54
   5  -1  -6   34.28   31.36
  -5  -1   6    9.39   13.45
  -5  -1   6    4.85   21.83
   5  -1  -6   18.37   14.26
   5   1  -6   10.46   23.37
  -5   1   6   23.88   26.42
  -5   1   6   16.59   14.23
  -5   1   6    2.29   21.74
   5   1  -6    3.07   11.62
   5   1  -6    6.81   21.11
   3  -1  -6   83.18   38.71
  -3  -1   6   71.51   33.16
   3  -1  -6  100.88   26.63
   3  -1  -6   62.16   38.33
  -3  -1   6   77.56   23.08
  -3  -1   6   27.43   28.00
  -3   1   6   63.78   21.75
   3   1  -6   49.45   28.36
  -3   1   6   51.08   30.20
  -3   1   6   38.31   28.04
   3   1  -6   65.47   34.65
   3   1  -6   77.47   23.28
  -1  -1   6  112.63   43.39
   1  -1  -6  157.59   54.89
   1  -1  -6  139.91   34.69
   1  -1  -6  179.51   37.40
  -1  -1   6  117.54   30.42
   1  -1  -6  181.75   53.62
  -1  -1   6  106.34   38.88
   1   1  -6  104.65   42.94
  -1   1   6   76.90   39.30
   1   1  -6  160.35   32.92
  -1   1   6  170.64   47.67
   1   1  -6  185.93   50.71
   1   1  -6  103.41   29.23
  -1   1   6  159.80   35.32
  -1  -1  -6   34.82   18.76
  -1  -1  -6   57.04   21.49
   1  -1   6   75.92   23.13
  -1  -1  -6   81.93   38.94
   1  -1   6    6.95   19.12
   1  -1   6   21.25   25.79
  -1  -1  -6   57.77   31.51
   1   1   6   49.18   28.45
   1   1   6   40.10   19.84
  -1   1  -6   41.71   18.50
   1   1   6   11.42   20.38
  -1   1  -6   23.45   14.98
  -1   1  -6   30.51   28.26
  -1   1  -6   44.78   27.79
   3  -1   6   63.65   30.79
  -3  -1  -6   28.62   27.43
   3  -1   6   61.50   23.88
  -3  -1  -6    6.54   21.82
  -3  -1  -6   35.21   18.20
  -3  -1  -6   48.56   21.05
  -3   1  -6   39.63   27.00
  -3   1  -6   96.32   40.58
  -3   1  -6   92.66   25.64
  -3   1  -6   49.34   19.41
   3   1   6   46.94   22.32
   3   1   6   37.53   29.50
  -5  -1  -6  129.82   45.89
   5  -1   6  135.90   34.91
   5  -1   6  170.93   49.76
  -5  -1  -6  143.08   37.34
  -5  -1  -6  158.83   35.96
   5  -1   6  153.20   35.46
   5  -1   6  161.43   29.14
   5   1   6  141.52   37.55
  -5   1  -6  147.69   35.15
  -5   1  -6  184.70   53.07
   5   1   6  151.42   36.06
  -5   1  -6  195.02   40.90
  -5   1  -6   62.59   35.34
   5   1   6  166.46   51.91
  -7  -1  -6   36.32   29.88
   7  -1   6   90.09   39.06
   7  -1   6   56.45   24.03
  -7  -1  -6   51.43   24.52
  -7  -1  -6   32.61   19.14
   7  -1   6   39.84   21.79
   7  -1   6   51.74   16.08
  -7  -1  -6   53.80   31.42
  -7   1  -6   41.11   20.03
  -7   1  -6   58.78   23.86
  -7   1  -6   65.39   34.15
   7   1   6   59.52   31.32
   7   1   6   35.00   22.74
   7   1   6   65.50   26.98
  -7   1  -6    3.24   18.91
   9  -1   6   -8.22   16.00
  -9  -1  -6    7.40   23.04
  -9  -1  -6   -4.61   12.68
   9  -1   6    4.31   16.12
   9  -1   6    4.04   20.95
   9  -1   6   10.97   11.79
  -9  -1  -6   -9.22   15.06
  -9  -1  -6    3.69   15.67
  -9   1  -6    7.11   23.33
   9   1   6    9.33   22.86
   9   1   6    8.40   18.12
   9   1   6    2.42    9.98
  -9   1  -6   -5.21   15.39
  -9   1  -6    1.13   13.35
  -9   1  -6    0.76   17.38
   9   1   6    9.21   19.34
 -11  -1  -6  -13.18   14.20
  11  -1   6    8.56   26.11
  11  -1   6   -4.05   10.84
 -11  -1  -6    2.30   15.90
 -11  -1  -6   -7.26   20.19
  11  -1   6    3.33   20.98
  11  -1   6    7.25   19.66
  11   1   6   -4.28    9.40
  11   1   6   -0.12   20.20
 -11   1  -6   -0.87   18.52
  11   1   6   -2.18   22.68
 -11   1  -6    6.88   24.95
  11   1   6   -3.14   16.65
 -11   1  -6   -7.70   13.63
  13  -1   6  124.36   41.31
  13  -1   6   49.08   29.36
 -13  -1  -6   29.87   32.88
  13  -1   6   49.28   17.50
  13  -1   6  115.70   44.30
 -13  -1  -6   75.98   28.69
 -13  -1  -6  182.76   46.67
 -13   1  -6   79.11   27.83
  13   1   6   71.07   36.16
 -13   1  -6   46.13   33.88
  13   1   6   96.31   19.32
  13   1   6  133.15   43.26
 -13   1  -6  133.97   40.48
  13   1   6   54.31   29.57
  15  -1   6  175.91   52.70
  15  -1   6   94.47   37.65
 -15  -1  -6   59.65   41.07
  15  -1   6  188.46   53.37
 -15  -1  -6  212.42   51.55
  15  -1   6   90.50   22.13
 -15  -1  -6  125.45   34.49
  15   1   6   82.34   19.88
 -15   1  -6  280.19   59.41
 -15   1  -6  102.98   46.71
  15   1   6  152.87   48.59
 -15   1  -6  129.41   35.07
  15   1   6  163.11   45.52
  17  -1   6   10.71   26.87
  17  -1   6   12.35   12.01
  17  -1   6   28.90   30.74
 -17  -1  -6    5.31   29.94
  17   1   6   -1.41   27.57
 -17   1  -6   25.12   30.08
  17   1   6  -13.20   21.83
 -17   1  -6   -6.96   24.72
  17   1   6   -4.26    7.90
  19  -1   6   -7.05   24.94
 -19  -1  -6    9.30   31.58
  19  -1   6   38.49   35.91
  19  -1   6   16.92   13.01
 -19   1  -6   23.54   34.85
  19   1   6   12.74   29.66
  19   1   6    9.92   30.31
 -21  -1  -6   23.95   32.85
  21  -1   6   27.29   35.36
  21  -1   6   -2.99   26.11
  21   1   6   24.60   33.52
 -21   1  -6   -9.79   29.47
  21   1   6   15.04   31.18
 -23  -1  -6   39.22   39.41
  23  -1   6   26.51   36.85
  23  -1   6   26.30   34.82
 -23   1  -6   -0.89   31.52
  23   1   6   -5.02   30.00
  23   1   6   52.40   44.39
  25  -1   6   21.17   36.55
 -25  -1  -6   -3.21   30.05
  25  -1   6    9.35   36.02
  25   1   6   -3.92   35.53
 -25   1  -6   10.96   39.72
  25   1   6   45.02   39.71
 -26  -2   6   52.04   29.38
  26  -2  -6  105.00   64.85
  26  -2  -6    2.19   39.53
  26   2  -6   17.85   43.73
  26   2  -6   86.77   54.57
 -26   2   6   69.95   32.27
  24  -2  -6  125.65   59.74
  24  -2  -6  134.95   64.79
 -24  -2   6   90.52   34.76
 -24   2   6   80.03   34.67
  24   2  -6  135.11   57.25
  24   2  -6  115.03   56.22
  22  -2  -6  123.92   58.82
 -22  -2   6   82.01   32.95
  22  -2  -6  151.00   65.59
 -22   2   6  107.00   36.23
  22   2  -6   87.89   50.45
  22   2  -6  119.78   52.14
  20  -2  -6  218.70   68.04
  20  -2  -6  167.94   65.92
 -20  -2   6  108.61   46.97
 -20  -2   6  165.52   41.14
  20   2  -6  181.68   59.65
 -20   2   6  178.83   44.17
  20   2  -6  144.46   58.52
  18  -2  -6  365.13   96.01
 -18  -2   6  235.53   71.11
  18  -2  -6  485.05   98.17
  18   2  -6  408.46   57.56
  18   2  -6  272.13   75.32
  18   2  -6  356.03   80.27
 -18   2   6  306.79   58.75
  16  -2  -6  553.12  111.04
 -16  -2   6  469.05   63.96
 -16  -2   6  354.96   75.20
  16  -2  -6  206.18   77.38
  16   2  -6  417.65   89.01
  16   2  -6  493.22   84.51
  16   2  -6  345.49   63.23
 -14  -2   6  340.94   64.33
  14  -2  -6  584.86  116.11
  14  -2  -6  478.09   69.21
 -14  -2   6  389.47   78.16
 -14  -2   6  361.35   87.22
  14  -2  -6  641.51   99.24
 -14   2   6  477.63   66.98
  14   2  -6  445.35   83.82
  14   2  -6  364.40   65.74
 -14   2   6  494.11   84.67
  14   2  -6  562.08   89.08
 -14   2   6  360.64   78.67
 -12  -2   6  353.02   76.51
 -12  -2   6  362.47   62.99
  12  -2  -6  473.86   67.59
  12  -2  -6  627.42   97.81
 -12  -2   6  401.08   75.92
  12  -2  -6  598.00   93.19
 -12   2   6  343.59   77.04
  12   2  -6  545.94   84.81
  12   2  -6  398.74   65.26
 -12   2   6  474.96   82.84
 -10  -2   6  694.06   83.48
  10  -2  -6  593.20  103.16
 -10  -2   6  450.17   91.03
  10  -2  -6  713.13  109.92
  10  -2  -6  520.19   82.40
 -10  -2   6  473.84   96.77
 -10   2   6  519.69   97.07
  10   2  -6  647.27   97.38
  10   2  -6  729.62  101.86
  10   2  -6  579.17   82.33
 -10   2   6  457.86   96.10
 -10   2   6  549.73   81.41
   8  -2  -6  814.68  136.41
   8  -2  -6  989.38  144.48
  -8  -2   6  613.73  129.70
  -8  -2   6  840.63  128.88
   8  -2  -6  813.23  119.45
  -8  -2   6  927.81  118.64
   8   2  -6  812.62  117.75
  -8   2   6  735.41  129.78
  -8   2   6  965.97  118.85
   8   2  -6 1085.33  136.46
   8   2  -6  971.44  131.94
  -6  -2   6  784.71  124.51
  -6  -2   6  839.98  114.61
   6  -2  -6  848.70  116.01
   6  -2  -6  874.94  137.98
   6  -2  -6  913.49  135.43
   6   2  -6  860.73  124.90
   6   2  -6  741.33  113.33
  -6   2   6  834.21  127.77
  -6   2   6  941.33  115.21
   6   2  -6  773.21  126.04
   4  -2  -6  618.32  125.30
  -4  -2   6  978.56  111.31
  -4  -2   6  838.48  121.75
   4  -2  -6  656.13  122.76
   4  -2  -6  719.46  109.02
  -4   2   6  912.51  110.30
   4   2  -6  793.00  108.43
   4   2  -6  906.28  119.94
  -4   2   6  663.10  118.58
   4   2  -6  729.95  120.67
   2  -2  -6  625.67  102.82
  -2  -2   6  546.57   93.15
   2  -2  -6  603.56   86.68
  -2  -2   6  640.51   85.83
   2  -2  -6  634.83   86.21
   2  -2  -6  463.20  100.78
   2   2  -6  567.22   92.10
   2   2  -6  562.72   84.11
   2   2  -6  510.37   95.13
   2   2  -6  553.09   83.19
  -2   2   6  741.95   86.95
  -2   2   6  651.38   96.59
   0  -2   6  671.21   96.37
   0  -2  -6  552.67   85.70
   0  -2  -6  602.25   86.23
   0  -2  -6  473.89   97.36
   0  -2   6  663.86   86.36
   0   2  -6  611.08   84.10
   0   2  -6  572.14   92.06
   0   2   6  648.06   86.36
   0   2  -6  520.22   96.45
   0   2  -6  579.55   84.40
   0   2   6  598.36   96.82
   2  -2   6 1000.09  122.85
  -2  -2  -6  795.24  133.32
   2  -2   6  887.43  116.56
  -2  -2  -6  865.01  122.55
   2  -2   6  871.43  131.46
  -2  -2  -6  790.47  121.20
  -2   2  -6  669.37  130.17
  -2   2  -6  905.07  120.80
  -2   2  -6 1013.12  131.14
   2   2   6  936.39  122.31
   2   2   6  802.95  131.38
  -2   2  -6  973.54  121.20
   4  -2   6  990.65  156.60
   4  -2   6 1081.05  147.43
  -4  -2  -6 1207.57  149.60
  -4  -2  -6  961.94  157.70
   4  -2   6 1043.93  141.42
  -4  -2  -6 1160.92  148.99
  -4   2  -6 1047.86  145.86
  -4   2  -6 1032.33  145.48
   4   2   6 1185.38  159.17
  -4   2  -6  975.53  153.98
   4   2   6 1174.00  148.93
   6  -2   6  895.33  122.20
  -6  -2  -6  744.22  110.81
  -6  -2  -6  577.04  116.69
   6  -2   6  768.60  103.77
   6  -2   6  847.94  111.74
  -6  -2  -6  714.07  110.38
   6  -2   6  850.77  112.27
   6   2   6  678.90  109.58
  -6   2  -6  662.82  116.16
  -6   2  -6  846.85  109.09
   6   2   6  828.57  121.46
   6   2   6  787.45  112.97
  -6   2  -6  868.94  110.63
  -8  -2  -6  702.52  105.77
   8  -2   6  774.66  106.59
   8  -2   6  988.45  120.28
   8  -2   6  773.28  108.31
  -8  -2  -6  673.58  106.56
   8  -2   6  796.47   99.11
  -8  -2  -6  531.80  112.22
   8   2   6  675.36  106.22
  -8   2  -6  773.59  105.57
  -8   2  -6  718.47  103.63
   8   2   6  809.27  116.77
  -8   2  -6  626.79  112.25
   8   2   6  697.71  107.63
 -10  -2  -6  651.55   94.72
  10  -2   6  607.68   94.05
 -10  -2  -6  651.70   96.56
  10  -2   6  572.09   85.03
  10  -2   6  713.76  104.16
 -10  -2  -6  436.74  100.21
  10  -2   6  703.87   98.52
 -10   2  -6  628.97   94.58
  10   2   6  750.45  105.31
 -10   2  -6  620.70   91.47
  10   2   6  608.32   96.45
 -10   2  -6  507.06   99.12
  10   2   6  574.53   94.85
  10   2   6  716.83   83.89
  12  -2   6  568.62   86.96
  12  -2   6  655.74   96.37
 -12  -2  -6  358.72   97.86
  12  -2   6  642.18   76.40
 -12  -2  -6  433.72   84.29
 -12  -2  -6  479.22   83.62
  12  -2   6  591.29   90.87
  12   2   6  561.70   93.78
  12   2   6  542.43   72.87
 -12   2  -6  665.88   85.70
  12   2   6  463.74   86.85
 -12   2  -6  638.62   89.13
  12   2   6  399.52   84.70
 -12   2  -6  541.23   93.91
  14  -2   6  558.74   69.35
  14  -2   6  452.08   79.33
 -14  -2  -6  520.77   79.45
 -14  -2  -6  448.77   76.78
 -14  -2  -6  406.46  100.96
  14  -2   6  473.01   83.47
  14   2   6  477.95   62.93
  14   2   6  397.94   79.98
  14   2   6  351.86   78.55
 -14   2  -6  609.12   79.23
 -14   2  -6  291.03   81.57
  16  -2   6  349.07   77.18
 -16  -2  -6  538.80   79.78
 -16  -2  -6  456.15  103.38
  16  -2   6  373.79   85.24
  16   2   6  427.59   81.29
  16   2   6  438.56   81.79
 -16   2  -6  268.33   82.83
  16   2   6  523.59   61.13
 -16   2  -6  533.93   81.55
 -18  -2  -6   84.36   45.91
  18  -2   6  133.44   43.53
  18  -2   6  113.57   47.51
  18   2   6  172.22   53.21
 -18   2  -6   97.07   36.65
 -18   2  -6  218.87   48.81
  18   2   6  143.19   46.80
 -20  -2  -6   78.66   45.51
  20  -2   6   94.92   44.05
  20  -2   6  115.62   41.96
  20   2   6   94.33   39.87
  20   2   6  114.03   46.84
 -20   2  -6   13.30   32.16
  22  -2   6   55.90   43.21
 -22  -2  -6   72.84   44.47
  22  -2   6   80.78   41.18
 -22   2  -6   75.67   39.90
  22   2   6  109.27   43.37
  22   2   6  136.88   52.81
 -24  -2  -6    4.34   31.29
  24  -2   6   30.09   38.17
  24  -2   6   18.70   37.15
  24   2   6   54.41   36.59
 -24   2  -6    7.05   37.12
  24   2   6   56.74   45.57
 -25  -3   6    6.08   25.07
  25  -3  -6   15.35   46.84
  25  -3  -6   26.52   53.70
  25   3  -6   51.94   47.60
  25   3  -6   19.62   42.68
 -25   3   6   25.23   27.71
  23  -3  -6  -11.78   33.96
 -23  -3   6   -3.33   23.34
  23  -3  -6   21.73   47.25
  23   3  -6   33.98   40.05
 -23   3   6   -1.51   22.82
  23   3  -6   31.08   42.09
 -21  -3   6    5.16   22.72
 -21  -3   6   -0.13   26.25
  21  -3  -6   33.76   45.51
  21  -3  -6   54.55   48.25
  21   3  -6   44.75   42.83
  21   3  -6   17.16   36.23
 -21   3   6    4.84   21.08
  19  -3  -6   74.95   51.30
 -19  -3   6   47.18   27.10
  19  -3  -6   34.51   40.09
 -19  -3   6   98.61   41.44
 -19   3   6   26.65   25.20
  19   3  -6   83.75   42.31
  19   3  -6   74.31   25.73
  19   3  -6   96.55   43.80
  17  -3  -6   73.56   49.98
 -17  -3   6  100.18   39.27
  17  -3  -6   38.65   44.42
  17   3  -6   57.29   22.78
 -17   3   6   47.17   25.00
  17   3  -6   63.28   37.07
  17   3  -6   51.43   39.28
 -15  -3   6   90.12   27.73
 -15  -3   6   50.07   37.00
 -15  -3   6   83.55   34.02
  15  -3  -6   80.80   48.01
  15  -3  -6  121.50   55.81
  15   3  -6   78.16   26.42
 -15   3   6   57.03   46.98
  15   3  -6  146.11   49.13
  15   3  -6  119.02   43.08
 -13  -3   6   77.74   27.33
  13  -3  -6  117.54   32.70
  13  -3  -6  176.75   62.70
 -13  -3   6  181.06   51.97
 -13  -3   6  151.86   43.62
  13  -3  -6  198.45   64.57
  13   3  -6  143.00   31.94
  13   3  -6  229.18   55.79
 -13   3   6   96.85   43.16
 -13   3   6  107.27   44.74
  13   3  -6  144.36   44.97
 -13   3   6  114.38   29.98
  11  -3  -6  279.29   76.44
 -11  -3   6  113.33   40.20
 -11  -3   6  147.27   49.90
 -11  -3   6  110.77   29.35
  11  -3  -6  126.19   32.84
  11  -3  -6  164.00   60.71
  11   3  -6   88.25   27.80
  11   3  -6  133.92   43.07
 -11   3   6  134.75   50.80
  11   3  -6  123.93   41.33
 -11   3   6   92.02   27.57
 -11   3   6  124.30   50.34
  -9  -3   6  140.41   45.74
   9  -3  -6  175.25   37.09
   9  -3  -6  250.04   74.13
   9  -3  -6  301.08   75.47
  -9  -3   6  216.27   54.44
  -9  -3   6  192.50   37.23
   9   3  -6  144.92   32.80
  -9   3   6  115.31   30.91
  -9   3   6  165.53   52.10
   9   3  -6  189.14   46.29
   9   3  -6  228.11   55.21
  -9   3   6  162.57   58.67
   7  -3  -6  132.04   54.95
  -7  -3   6  103.81   37.16
   7  -3  -6  152.55   35.46
  -7  -3   6  120.70   44.38
  -7  -3   6  108.25   28.64
   7  -3  -6  129.20   51.68
   7   3  -6  187.77   50.46
   7   3  -6  150.07   41.13
  -7   3   6  122.97   44.71
  -7   3   6  162.12   51.22
  -7   3   6   76.04   25.01
   7   3  -6  136.83   29.50
  -5  -3   6   77.12   31.29
   5  -3  -6   66.33   23.70
   5  -3  -6   66.96   41.96
   5  -3  -6   84.57   39.63
  -5  -3   6   93.72   25.51
  -5  -3   6   31.27   24.90
  -5   3   6   68.87   21.24
  -5   3   6   56.88   35.47
   5   3  -6   59.12   20.62
   5   3  -6   88.61   35.30
  -5   3   6   65.10   34.16
   5   3  -6   62.36   27.72
  -3  -3   6   17.19   16.31
  -3  -3   6    3.53   21.43
   3  -3  -6   12.90   14.66
  -3  -3   6    5.61   18.83
   3  -3  -6   27.90   30.09
   3  -3  -6    0.08   13.34
   3  -3  -6    6.69   23.70
  -3   3   6   24.67   25.93
   3   3  -6   18.95   19.75
  -3   3   6   16.92   14.77
  -3   3   6    9.70   23.83
   3   3  -6    9.45   11.88
   3   3  -6   12.61   13.39
   3   3  -6   23.28   23.62
   1  -3  -6   41.88   35.31
   1  -3  -6   59.45   37.32
   1  -3  -6   50.23   22.26
   1  -3  -6   72.33   25.03
  -1  -3   6   18.04   24.17
  -1  -3   6   85.62   23.69
  -1  -3   6   57.32   30.36
  -1   3   6   17.89   27.18
   1   3  -6  100.60   22.79
   1   3  -6  116.20   32.93
   1   3  -6   51.35   19.25
  -1   3   6  103.99   27.25
  -1   3   6  132.10   39.17
   1   3  -6   67.56   32.48
  -1  -3  -6   83.49   35.53
   1  -3   6   96.99   26.20
  -1  -3  -6   61.35   36.80
   1  -3   6   86.66   35.03
  -1  -3  -6   87.51   28.11
  -1  -3  -6   66.87   25.05
  -1   3  -6  101.52   31.80
   1   3   6   74.56   35.54
  -1   3  -6   62.97   20.73
  -1   3  -6   65.91   30.82
   1   3   6   85.89   24.86
   1   3   6   12.97   23.93
  -1   3  -6   66.39   21.17
   3  -3   6   22.40   17.60
  -3  -3  -6   15.85   23.63
  -3  -3  -6   -7.99   16.66
   3  -3   6   11.98   24.36
  -3  -3  -6    2.27   13.69
  -3  -3  -6   -6.77   11.96
  -3   3  -6   21.88   14.59
   3   3   6   20.54   17.23
  -3   3  -6   20.65   24.50
  -3   3  -6   17.24   20.50
  -3   3  -6   20.15   15.59
   3   3   6   29.85   28.79
   5  -3   6   78.26   35.74
   5  -3   6   59.97   23.01
  -5  -3  -6   73.96   26.36
  -5  -3  -6   55.17   24.85
  -5  -3  -6   12.47   23.21
  -5  -3  -6   16.44   23.66
   5  -3   6   68.92   24.32
  -5   3  -6   75.49   22.91
  -5   3  -6   30.53   27.87
   5   3   6   41.28   21.67
  -5   3  -6   96.80   30.67
   5   3   6   27.34   25.08
  -5   3  -6   48.45   18.92
   7  -3   6  158.04   51.28
  -7  -3  -6  195.44   44.60
   7  -3   6  229.46   44.17
  -7  -3  -6  102.35   43.11
   7  -3   6  215.44   43.21
  -7  -3  -6  212.28   45.76
  -7  -3  -6   83.03   41.34
  -7   3  -6  223.07   51.87
   7   3   6  104.25   41.99
   7   3   6  241.78   45.84
   7   3   6  142.83   41.20
  -7   3  -6  134.12   34.70
  -7   3  -6   88.93   40.52
  -7   3  -6  246.37   39.29
  -9  -3  -6   30.77   29.35
   9  -3   6   72.54   31.24
   9  -3   6   62.84   25.51
   9  -3   6   60.56   36.11
  -9  -3  -6   70.63   27.90
  -9  -3  -6   92.86   34.45
   9   3   6  108.22   36.35
  -9   3  -6   96.92   27.92
   9   3   6   70.31   34.32
  -9   3  -6   95.00   37.37
  -9   3  -6  121.38   34.20
   9   3   6  104.71   35.07
  11  -3   6    5.21   27.99
 -11  -3  -6   36.79   30.60
 -11  -3  -6   -3.06   18.02
  11  -3   6   56.22   29.63
 -11  -3  -6   -2.34   17.11
 -11  -3  -6    7.56   18.85
  11  -3   6   21.11   21.49
  11   3   6   16.26   10.50
  11   3   6    2.43   21.26
 -11   3  -6   11.75   18.84
 -11   3  -6   21.96   18.69
  11   3   6   25.11   27.75
 -11   3  -6   -0.50   17.69
  11   3   6    0.52   19.03
 -11   3  -6   29.04   28.59
  13  -3   6  129.59   47.60
 -13  -3  -6   94.13   34.30
  13  -3   6   99.25   33.39
 -13  -3  -6   30.24   33.44
  13  -3   6  137.99   44.00
  13   3   6  105.51   18.91
 -13   3  -6  214.14   46.49
 -13   3  -6  121.45   32.49
  13   3   6  235.38   56.15
 -13   3  -6   22.57   30.58
  13   3   6   98.83   38.08
  13   3   6  116.14   41.98
 -15  -3  -6    7.46   29.26
  15  -3   6   60.69   34.31
  15  -3   6  114.24   42.67
  15  -3   6   32.99   27.11
 -15  -3  -6   43.81   25.26
  15   3   6   28.81    8.96
  15   3   6   29.14   30.09
  15   3   6   67.46   35.68
 -15   3  -6   91.41   33.06
 -15   3  -6   49.91   34.12
 -17  -3  -6   23.40   34.14
  17  -3   6   25.92   29.38
  17  -3   6    5.49   29.75
 -17   3  -6   10.04   27.98
  17   3   6   -6.73   26.19
 -17   3  -6   44.69   37.05
  17   3   6  -10.01   23.83
  19  -3   6   -1.96   25.39
 -19  -3  -6   -5.60   24.66
  19  -3   6  -20.53   28.50
  19   3   6   -6.46   25.79
  19   3   6   17.71   29.57
 -19   3  -6   12.91   27.51
 -19   3  -6   -1.14   33.68
 -21  -3  -6    8.70   29.03
  21  -3   6   14.88   35.04
  21  -3   6    7.55   29.69
 -21   3  -6   40.27   37.78
  21   3   6   29.16   39.37
  21   3   6   -2.05   28.60
 -21   3  -6   10.02   49.38
  23  -3   6   12.78   32.47
  23  -3   6  -28.51   27.23
 -23  -3  -6   21.02   32.33
  23   3   6  -26.71   30.13
 -23   3  -6  -16.30   27.99
  23   3   6    8.21   33.55
  25  -3   6   -7.89   31.90
  25  -3   6   28.88   34.97
 -25  -3  -6  -23.89   23.56
 -25   3  -6   45.09   44.74
  25   3   6   19.84   38.95
  25   3   6  -12.85   27.14
  24  -4  -6   67.47   47.80
  24  -4  -6   82.61   58.83
 -24  -4   6   28.03   28.48
  24   4  -6   96.98   49.17
 -24   4   6   90.79   34.65
  24   4  -6  122.63   47.44
 -22  -4   6   49.79   42.11
  22  -4  -6   85.57   60.01
  22  -4  -6   80.05   54.81
 -22  -4   6   69.90   33.27
  22   4  -6  134.79   52.08
  22   4  -6   71.75   47.44
 -22   4   6  127.57   38.68
  20  -4  -6  232.46   71.61
 -20  -4   6  116.12   35.81
  20  -4  -6  143.77   62.46
 -20  -4   6   53.20   41.26
  20   4  -6  138.65   47.56
  20   4  -6   78.11   44.17
  20   4  -6   73.75   31.90
 -20   4   6   73.43   30.75
  18  -4  -6  235.35   74.33
  18  -4  -6  227.51   78.67
 -18  -4   6  156.47   54.35
 -18   4   6  221.25   46.46
  18   4  -6  129.24   49.14
  18   4  -6  148.02   51.60
  18   4  -6  283.76   43.99
  16  -4  -6  158.68   71.53
 -16  -4   6  271.96   48.98
  16  -4  -6  354.75   92.38
 -16   4   6  269.08   50.67
  16   4  -6  173.94   52.00
  16   4  -6  331.09   70.95
  16   4  -6  333.02   50.61
  14  -4  -6  416.02   92.89
 -14  -4   6  384.86   68.06
 -14  -4   6  274.99   70.26
  14  -4  -6  385.71   93.02
 -14  -4   6  259.64   52.49
  14   4  -6  310.07   53.80
  14   4  -6  360.93   70.49
  14   4  -6  353.80   62.87
 -14   4   6  318.58   80.48
  12  -4  -6  545.93   96.60
 -12  -4   6  362.99   60.72
 -12  -4   6  309.28   76.99
  12  -4  -6  380.13   63.10
 -12  -4   6  371.93   75.00
  12  -4  -6  628.03  122.21
  12   4  -6  468.19   77.64
 -12   4   6  534.62  109.95
  12   4  -6  389.28   68.61
 -12   4   6  440.70   62.08
  12   4  -6  351.64   60.49
 -12   4   6  336.43   88.27
 -10  -4   6  417.06   89.25
 -10  -4   6  540.56   89.58
  10  -4  -6  574.86  106.12
  10  -4  -6  425.31   79.12
  10  -4  -6  681.64  112.40
 -10  -4   6  575.78   78.37
  10   4  -6  584.24   84.23
 -10   4   6  494.29   93.39
  10   4  -6  575.86   77.70
  10   4  -6  669.41   93.29
 -10   4   6  593.74   78.47
 -10   4   6  417.06   91.85
   8  -4  -6  707.14  117.79
   8  -4  -6  492.90   88.43
  -8  -4   6  741.95  101.80
   8  -4  -6  680.77  114.28
  -8  -4   6  745.95   89.30
  -8  -4   6  576.69  101.45
  -8   4   6  537.08   86.58
  -8   4   6  523.48  101.43
   8   4  -6  721.34   92.24
   8   4  -6  615.70   85.88
  -6  -4   6  459.71   95.55
  -6  -4   6  658.32   85.71
   6  -4  -6  595.44   87.37
   6  -4  -6  672.68  112.23
   6  -4  -6  603.04  109.24
  -6  -4   6  572.85   94.32
  -6   4   6  379.12  106.70
  -6   4   6  669.54   85.21
   6   4  -6  650.78   85.94
   6   4  -6  623.52   94.81
  -6   4   6  556.42   97.73
   4  -4  -6  613.69  111.03
  -4  -4   6  660.35   98.97
  -4  -4   6  613.19   87.14
   4  -4  -6  623.92  108.78
   4  -4  -6  605.00   88.90
   4   4  -6  515.31   85.06
  -4   4   6  702.34   87.80
   4   4  -6  669.02   86.15
  -4   4   6  722.97  103.09
   4   4  -6  561.88   94.83
   4   4  -6  589.60   83.04
   2  -4  -6  682.42  110.62
   2  -4  -6  873.06  132.66
  -2  -4   6  834.41  110.40
  -2  -4   6  728.52  121.15
   2  -4  -6  653.38  130.02
   2  -4  -6  747.08  112.60
  -2   4   6  759.68  121.49
   2   4  -6  793.73  118.36
   2   4  -6  897.47  107.72
   2   4  -6  707.59  107.86
   2   4  -6  892.02  105.66
  -2   4   6  901.25  110.64
   0  -4   6  693.61   94.90
   0  -4  -6  624.40   96.76
   0  -4  -6  624.19   96.02
   0  -4  -6  617.39  110.94
   0  -4  -6  552.48  111.61
   0  -4   6  766.81  106.84
   0   4  -6  708.58   91.08
   0   4  -6  608.34  102.50
   0   4   6  673.09  107.06
   0   4  -6  634.68   92.95
   0   4   6  736.16   95.30
   0   4  -6  731.32   89.78
  -2  -4  -6  509.98   86.87
   2  -4   6  617.21   86.28
  -2  -4  -6  608.74   88.72
  -2  -4  -6  527.71  100.37
   2  -4   6  684.57   99.07
  -2  -4  -6  403.58  107.96
  -2   4  -6  590.12   80.59
   2   4   6  728.13  101.48
   2   4   6  650.31   87.09
  -2   4  -6  599.39   82.29
  -2   4  -6  609.98   84.27
  -4  -4  -6  738.44  107.39
   4  -4   6  784.56  105.44
  -4  -4  -6  606.89  115.00
  -4  -4  -6  673.30  106.17
   4  -4   6  946.68  117.93
   4   4   6  731.91  105.35
  -4   4  -6  792.40  100.15
  -4   4  -6  728.00  101.74
  -4   4  -6  712.13  102.23
   4   4   6  720.68  114.83
  -6  -4  -6  719.90  106.32
   6  -4   6  715.36  102.86
  -6  -4  -6  765.25  106.68
   6  -4   6  772.62  104.87
  -6  -4  -6  513.53  111.09
   6  -4   6  922.66  118.45
  -6   4  -6  667.61   98.45
  -6   4  -6  706.39  100.82
  -6   4  -6  751.83  100.87
   6   4   6  660.62  102.64
   6   4   6  797.60  114.37
   8  -4   6  580.05   88.45
  -8  -4  -6  640.80   94.14
   8  -4   6  713.39  102.06
  -8  -4  -6  723.25   93.42
  -8  -4  -6  572.93  101.22
   8  -4   6  549.94   89.92
  -8   4  -6  450.36   86.36
   8   4   6  759.27  102.83
  -8   4  -6  514.51   84.64
   8   4   6  731.64   95.90
   8   4   6  618.68   90.40
  -8   4  -6  521.48   84.99
 -10  -4  -6  564.75  106.56
 -10  -4  -6  662.69   98.29
  10  -4   6  660.72  106.23
  10  -4   6  598.40   96.33
 -10  -4  -6  624.19   95.44
  10  -4   6  587.89   93.70
 -10   4  -6  486.50   91.90
  10   4   6  613.08   97.95
  10   4   6  593.26   94.92
 -10   4  -6  720.73   93.35
 -10   4  -6  637.49   91.79
  10   4   6  847.65  107.61
  12  -4   6  277.84   66.78
  12  -4   6  518.87   78.96
 -12  -4  -6  513.59  102.15
 -12  -4  -6  348.58   63.34
  12  -4   6  278.39   61.25
 -12  -4  -6  266.09   79.04
  12   4   6  357.68   48.99
  12   4   6  282.40   65.04
  12   4   6  343.72   73.77
  12   4   6  483.54   78.14
 -12   4  -6  312.92   70.00
 -12   4  -6  457.69   63.00
 -12   4  -6  404.94   61.84
 -14  -4  -6  379.16   67.03
 -14  -4  -6  297.82   83.43
  14  -4   6  303.93   70.81
  14  -4   6  297.93   65.03
  14  -4   6  513.07   77.42
  14   4   6  380.57   46.54
  14   4   6  319.28   74.23
  14   4   6  388.33   71.27
 -14   4  -6  383.37   64.46
 -14   4  -6  212.22   63.57
  16  -4   6  197.21   58.18
  16  -4   6  188.45   52.25
 -16  -4  -6  268.41   76.71
  16   4   6  332.08   68.75
 -16   4  -6  357.46   69.29
 -16   4  -6  203.10   52.81
  16   4   6  351.91   68.17
  18  -4   6   51.22   37.07
 -18  -4  -6  113.61   51.58
  18  -4   6  116.15   38.74
  18   4   6  158.43   48.01
 -18   4  -6  115.69   42.52
 -18   4  -6   46.89   37.81
  18   4   6   93.01   42.20
 -20  -4  -6  136.78   49.02
  20  -4   6   56.19   40.43
  20  -4   6   36.98   33.90
  20   4   6  122.21   45.00
 -20   4  -6  101.29   44.69
  20   4   6  100.79   45.84
 -20   4  -6   42.80   36.24
 -22  -4  -6   66.65   37.35
  22  -4   6   -8.07   34.52
  22  -4   6   63.86   39.77
  22   4   6  111.34   47.22
 -22   4  -6   36.28   35.50
  22   4   6   69.51   41.80
 -22   4  -6  167.60   56.07
 -24  -4  -6   28.64   33.30
  24  -4   6   46.69   39.68
  24  -4   6   34.08   38.60
 -24   4  -6   28.72   35.86
  24   4   6   64.49   44.73
  24   4   6   21.46   34.13
  23  -5  -6    8.90   48.98
 -23  -5   6    3.42   25.84
  23  -5  -6   -6.66   40.83
 -23  -5   6   26.39   38.80
  23   5  -6   22.48   40.12
 -23   5   6    5.44   24.09
  23   5  -6    6.97   32.25
  23   5  -6   28.84   24.04
 -21  -5   6    0.26   32.37
  21  -5  -6   18.68   45.65
  21  -5  -6   16.82   48.15
 -21  -5   6   57.67   31.32
 -21   5   6   11.65   23.42
  21   5  -6    4.98   22.52
  21   5  -6    4.94   29.91
  21   5  -6   -0.68   33.19
 -19  -5   6   20.65   35.25
  19  -5  -6    8.52   39.65
 -19  -5   6   29.87   25.45
  19  -5  -6   46.01   47.49
  19   5  -6   -9.40   25.26
  19   5  -6   61.24   23.88
 -19   5   6   12.30   21.96
  19   5  -6   33.28   37.14
 -17  -5   6    0.60   26.47
  17  -5  -6   17.81   36.57
  17  -5  -6  -21.14   31.65
  17   5  -6    1.92   19.16
  17   5  -6   31.78   33.74
  17   5  -6   38.35   28.07
 -17   5   6   13.13   21.39
 -15  -5   6   28.00   31.13
 -15  -5   6   42.35   21.99
  15  -5  -6   -4.92   34.66
  15  -5  -6   19.50   40.29
 -15  -5   6   -4.36   24.90
  15   5  -6   32.40   20.55
  15   5  -6   46.72   24.99
  15   5  -6   20.25   31.96
 -15   5   6   12.82   36.16
 -15   5   6   21.10   20.71
 -13  -5   6   19.79   29.85
 -13  -5   6   -4.84   25.93
  13  -5  -6    8.52   34.16
 -13  -5   6   38.62   19.98
  13  -5  -6   20.65   38.93
  13   5  -6   53.24   24.08
  13   5  -6   22.64   17.56
  13   5  -6   54.80   32.29
 -13   5   6   18.57   37.51
  11  -5  -6   61.93   24.43
  11  -5  -6   70.16   45.83
 -11  -5   6   22.64   28.61
 -11  -5   6   42.61   20.72
  11  -5  -6   75.47   44.41
 -11  -5   6  105.24   38.36
  11   5  -6   74.84   35.80
  11   5  -6   47.26   17.48
  11   5  -6   64.97   21.62
 -11   5   6    1.06   33.55
  -9  -5   6   49.36   29.31
   9  -5  -6   63.17   46.54
   9  -5  -6   65.87   43.63
   9  -5  -6   48.36   20.32
  -9  -5   6   60.74   33.36
  -9  -5   6   34.97   18.88
   9   5  -6   47.53   14.21
  -9   5   6   37.43   35.96
  -9   5   6   23.32   33.07
   9   5  -6   61.29   29.68
  -9   5   6   21.34   15.70
   7  -5  -6   -9.27   28.97
  -7  -5   6    3.91   19.71
   7  -5  -6   11.25   17.22
  -7  -5   6   58.80   19.04
   7  -5  -6   15.57   33.35
  -7  -5   6   39.61   27.12
  -7   5   6   22.84   28.19
   7   5  -6   27.46   23.22
  -7   5   6    1.13   29.74
  -7   5   6   27.61   14.82
   5  -5  -6   70.54   25.42
  -5  -5   6   60.04   22.11
   5  -5  -6   42.61   38.90
  -5  -5   6   55.45   32.58
   5  -5  -6   76.96   41.66
  -5   5   6   22.33   30.07
  -5   5   6   53.85   19.37
   5   5  -6   98.50   32.11
  -5   5   6   93.07   42.10
   5   5  -6   53.10   18.99
  -3  -5   6  128.81   42.76
   3  -5  -6  103.68   49.42
  -3  -5   6   69.32   23.58
   3  -5  -6  105.39   49.22
   3  -5  -6  102.70   30.05
   3  -5  -6   88.63   29.13
  -3  -5   6   57.94   29.52
   3   5  -6   63.91   20.61
  -3   5   6   97.52   39.68
  -3   5   6   25.30   28.68
  -3   5   6  121.78   26.78
   3   5  -6  123.48   34.20
  -1  -5   6  118.12   28.83
   1  -5  -6  107.66   30.26
   1  -5  -6  122.12   33.29
  -1  -5   6  128.35   41.47
   1  -5  -6  117.70   48.50
   1  -5  -6  108.77   48.89
  -1   5   6   92.50   40.30
  -1   5   6   91.99   27.84
   1   5  -6  137.56   39.15
   1   5  -6  106.49   25.27
  -1  -5  -6   76.93   29.33
  -1  -5  -6  158.12   53.95
  -1  -5  -6  104.50   33.35
  -1  -5  -6  100.80   46.55
   1  -5   6  153.47   31.09
   1  -5   6  138.40   44.59
  -1   5  -6  116.85   35.31
   1   5   6   93.38   38.90
   1   5   6  123.74   31.13
  -3  -5  -6    1.26   21.38
  -3  -5  -6    3.86   17.02
   3  -5   6   39.11   19.24
   3  -5   6   63.02   38.34
  -3  -5  -6   54.33   24.58
  -3  -5  -6   14.42   25.38
  -3   5  -6   42.15   27.31
   3   5   6   37.05   31.26
  -3   5  -6   31.35   16.41
   3   5   6   39.81   20.19
  -5  -5  -6   18.86   22.51
   5  -5   6   29.52   35.42
  -5  -5  -6    8.91   21.02
  -5  -5  -6   49.04   22.82
  -5  -5  -6    9.80   26.49
   5  -5   6   18.60   19.74
   5   5   6   26.84   20.24
  -5   5  -6   39.39   18.29
  -5   5  -6   35.87   29.58
   5   5   6   83.20   32.56
  -7  -5  -6  116.07   34.99
   7  -5   6   86.84   30.15
  -7  -5  -6   22.12   29.46
   7  -5   6  105.26   30.50
   7  -5   6  145.79   45.89
  -7  -5  -6   34.64   30.80
  -7  -5  -6  127.93   37.69
  -7   5  -6   64.56   33.86
   7   5   6  200.82   51.27
  -7   5  -6   88.50   25.41
   7   5   6   89.17   29.95
  -9  -5  -6   77.36   28.78
   9  -5   6   40.83   23.11
  -9  -5  -6   54.00   25.58
   9  -5   6  110.93   42.56
  -9  -5  -6    8.89   20.96
   9  -5   6   82.05   29.56
  -9  -5  -6    7.91   25.15
   9   5   6   28.98   22.21
   9   5   6   41.06   27.35
   9   5   6   60.79   31.21
  -9   5  -6   52.44   23.90
  -9   5  -6   -1.13   20.71
  11  -5   6   36.70   29.04
 -11  -5  -6   26.65   28.15
  11  -5   6   25.41   22.15
 -11  -5  -6   14.37   28.97
 -11  -5  -6   39.65   25.66
  11  -5   6   31.61   37.92
 -11   5  -6    5.12   23.46
  11   5   6   15.67   22.97
  11   5   6   33.02   23.39
 -11   5  -6   64.58   24.69
  11   5   6   27.79   30.17
  13  -5   6   41.83   39.00
 -13  -5  -6   20.69   23.16
  13  -5   6   35.00   29.95
 -13  -5  -6    0.19   20.30
 -13  -5  -6   79.02   40.20
  13  -5   6    9.64   22.03
  13   5   6   78.44   32.00
 -13   5  -6   21.77   22.19
 -13   5  -6   11.64   19.76
  13   5   6   10.64    6.89
  13   5   6   23.94    8.33
  13   5   6   12.64   26.78
  13   5   6   43.05   27.74
 -13   5  -6   14.68   27.44
  15  -5   6   13.54   25.14
  15  -5   6   79.86   40.81
 -15  -5  -6   62.98   28.56
  15  -5   6   27.36   31.40
 -15  -5  -6   14.00   31.19
  15   5   6    5.82   24.57
 -15   5  -6   10.65   24.26
  15   5   6    1.11   22.58
 -15   5  -6   24.32   25.77
 -17  -5  -6    9.05   34.78
 -17  -5  -6   13.67   29.53
  17  -5   6   21.70   32.88
  17  -5   6    4.09   25.60
  17   5   6   51.59   34.00
 -17   5  -6   35.55   25.86
 -17   5  -6   41.25   31.62
  17   5   6   12.98   29.32
  19  -5   6    1.52   32.22
  19  -5   6   15.13   30.03
 -19  -5  -6   20.04   35.86
 -19   5  -6   10.06   27.50
 -19   5  -6   -3.20   18.21
 -19   5  -6   19.62   30.80
  19   5   6   21.11   29.02
  19   5   6   33.95   34.43
  21  -5   6   46.70   42.26
  21  -5   6   21.49   33.72
 -21  -5  -6   -1.13   26.18
 -21   5  -6  -16.35   24.03
  21   5   6    1.05   31.41
 -21   5  -6   -9.51   22.50
 -21   5  -6   28.62   22.15
  21   5   6   21.31   33.29
  23  -5   6    7.25   37.06
  23  -5   6    3.03   30.34
 -23  -5  -6   -8.46   25.36
 -23   5  -6   -0.41   25.98
  23   5   6   19.63   32.25
 -23   5  -6  -10.01   25.89
  23   5   6    8.73   34.44
  22  -6  -6  173.99   66.50
 -22  -6   6   37.76   30.31
 -22  -6   6   31.12   38.72
  22  -6  -6   86.78   62.77
  22   6  -6    3.05   13.06
 -22   6   6  143.92   36.81
 -20  -6   6   50.65   45.98
  20  -6  -6   76.47   58.93
  20  -6  -6  151.69   64.22
 -20  -6   6  121.14   39.13
 -20   6   6  196.31   44.74
  20   6  -6  114.42   29.84
  18  -6  -6  275.04   81.82
 -18  -6   6  138.54   52.36
  18  -6  -6  156.49   74.14
 -18  -6   6  139.63   40.52
  18   6  -6  152.79   49.15
  18   6  -6  149.52   33.91
 -18   6   6  200.48   43.52
  16  -6  -6  180.61   66.97
  16  -6  -6  170.15   70.35
 -16  -6   6  121.70   48.96
  16   6  -6  213.35   32.45
  16   6  -6  164.36   46.69
 -16   6   6  198.60   43.26
 -16   6   6   47.04   55.62
  14  -6  -6  196.53   68.19
  14  -6  -6  133.74   66.08
 -14  -6   6  248.61   41.82
 -14  -6   6  115.17   49.11
 -14  -6   6  145.45   52.54
 -14   6   6  295.51   50.09
 -14   6   6  237.15   72.67
  14   6  -6  199.27   49.72
 -12  -6   6  251.85   51.45
  12  -6  -6  442.31  113.31
 -12  -6   6  322.11   73.07
  12  -6  -6  476.27  100.94
 -12  -6   6  226.22   69.42
 -12   6   6  395.03   88.48
 -12   6   6  365.73   55.80
  12   6  -6  337.08   61.90
  10  -6  -6  369.04  103.75
 -10  -6   6  331.65   80.52
 -10  -6   6  391.79   61.89
  10  -6  -6  488.22  105.32
  10   6  -6  421.58   71.33
 -10   6   6  469.73   81.68
  -8  -6   6  330.86   54.63
   8  -6  -6  504.36  115.95
  -8  -6   6  244.22   66.81
   8  -6  -6  421.15   97.37
   8  -6  -6  319.04   58.84
  -8   6   6  355.23   54.99
  -8   6   6  426.92   96.62
   8   6  -6  436.34   64.62
   6  -6  -6  475.80   97.45
   6  -6  -6  479.07   73.80
  -6  -6   6  586.77   82.72
   6  -6  -6  582.07  127.35
  -6  -6   6  439.38   69.72
   6   6  -6  556.00   77.02
  -6   6   6  517.35   70.26
  -6   6   6  512.70   89.41
  -6   6   6  271.07   95.18
   6   6  -6  439.04   69.22
   4  -6  -6  484.32  101.39
  -4  -6   6  681.45   90.58
   4  -6  -6  645.44  129.59
   4  -6  -6  558.65   83.28
   4  -6  -6  569.02   81.11
  -4  -6   6  495.12   75.41
  -4   6   6  609.39   91.65
  -4   6   6  339.22  103.94
  -4   6   6  525.92   75.34
   4   6  -6  475.26   74.30
  -2  -6   6  711.85  114.87
   2  -6  -6  813.60  128.25
   2  -6  -6  817.05  109.33
  -2  -6   6  685.45  102.26
   2  -6  -6  811.64  107.85
   2  -6  -6  735.62  128.65
  -2   6   6  869.03  103.30
   2   6  -6  597.93   99.35
  -2   6   6  767.51  117.41
   0  -6   6 1018.23  127.60
   0  -6  -6  887.44  119.20
   0  -6  -6  692.46  129.58
   0  -6  -6  747.21  115.99
   0  -6   6  804.98  112.53
   0  -6  -6  576.71  129.46
   0   6   6 1058.54  127.05
   0   6  -6  598.87  127.22
   0   6   6  914.14  113.05
   0   6  -6  839.25  110.10
   2  -6   6  547.15   73.98
  -2  -6  -6  499.31  106.02
   2  -6   6  652.24   89.90
  -2  -6  -6  450.24   77.31
  -2  -6  -6  347.43   99.51
  -2  -6  -6  430.09   75.99
   2   6   6  569.82   84.69
   2   6   6  485.53   72.77
  -4  -6  -6  425.57   75.26
   4  -6   6  489.12   87.56
  -4  -6  -6  431.96   76.61
   4  -6   6  442.30   72.50
  -4  -6  -6  396.53   97.04
  -4   6  -6  582.20   70.91
   4   6   6  592.43   83.69
   4   6   6  459.31   71.95
   6  -6   6  413.77   78.79
  -6  -6  -6  509.85   83.29
   6  -6   6  643.94   95.23
  -6  -6  -6  563.17  116.15
  -6  -6  -6  660.73   86.02
   6   6   6  587.05   89.51
  -6   6  -6  546.22   77.21
  -6   6  -6  406.73  123.13
   6   6   6  505.45   79.25
  -8  -6  -6  446.50   76.60
  -8  -6  -6  331.43   67.60
   8  -6   6  381.95   64.20
  -8  -6  -6  412.77  100.06
   8  -6   6  489.35   78.78
   8  -6   6  352.67   66.63
  -8   6  -6  424.72   63.13
   8   6   6  536.24   76.65
   8   6   6  322.07   63.19
  10  -6   6  391.41   69.90
  10  -6   6  533.03   79.61
 -10  -6  -6  354.17   67.81
  10  -6   6  326.39   63.88
 -10  -6  -6  273.84   79.58
  10   6   6  294.81   62.41
 -10   6  -6  444.04   64.44
  10   6   6  450.65   77.21
  10   6   6  457.15   54.14
  10   6   6  308.36   68.51
  12  -6   6  317.58   61.78
 -12  -6  -6  153.44   56.64
  12  -6   6  153.22   45.76
 -12  -6  -6  150.79   44.44
  12  -6   6  185.28   41.61
  12   6   6  174.05   25.41
  12   6   6  122.97   40.66
  12   6   6  165.36   48.34
  14  -6   6  121.80   38.99
  14  -6   6  125.00   43.89
 -14  -6  -6  116.32   52.07
  14  -6   6  297.06   64.99
 -14  -6  -6  222.31   50.91
  14   6   6  149.11   47.23
  14   6   6  234.33   53.14
 -14   6  -6  132.37   37.84
 -16  -6  -6   23.06   34.18
  16  -6   6  110.50   37.92
 -16  -6  -6  179.14   58.24
  16  -6   6  163.67   50.45
 -16   6  -6  108.79   34.37
  16   6   6  256.07   55.48
  16   6   6  176.75   52.81
  18  -6   6   84.44   37.84
  18  -6   6  102.66   45.48
 -18  -6  -6  142.30   51.06
 -18   6  -6   69.16   29.98
  18   6   6  117.46   41.77
  18   6   6  204.81   56.44
  20  -6   6   35.49   42.21
 -20  -6  -6  102.85   44.02
  20  -6   6   58.93   37.33
  20   6   6   93.28   38.23
 -20   6  -6   24.30   24.18
  20   6   6   76.59   39.93
 -19  -7   6   75.40   37.68
 -19  -7   6   36.19   29.06
  19  -7  -6   -8.24   48.85
  19  -7  -6   48.13   48.51
 -19   7   6   13.37   24.17
  19   7  -6    5.07   11.33
  17  -7  -6   -4.91   36.49
 -17  -7   6   11.62   30.11
  17  -7  -6   63.57   57.99
 -17  -7   6   26.27   26.71
 -17   7   6    1.03   35.97
 -17   7   6   13.26   21.16
  15  -7  -6  -31.25   36.67
 -15  -7   6    9.38   28.80
  15  -7  -6   40.91   42.71
 -15   7   6   24.55   23.20
 -15   7   6   53.11   49.12
  13  -7  -6   63.57   58.33
  13  -7  -6   98.43   50.78
 -13  -7   6   67.09   36.49
 -13  -7   6   64.97   43.23
 -13  -7   6   41.37   23.75
  13   7  -6  122.62   30.73
 -13   7   6  116.85   52.47
 -13   7   6   39.84   24.19
  11  -7  -6  174.97   73.40
 -11  -7   6  122.64   41.37
 -11  -7   6   69.75   25.97
  11  -7  -6  110.55   52.72
 -11  -7   6  123.40   44.59
 -11   7   6   97.30   29.46
 -11   7   6  106.75   49.37
  11   7  -6   91.18   31.55
  -9  -7   6   47.71   29.47
   9  -7  -6  133.58   63.20
  -9  -7   6  123.93   42.25
  -9  -7   6   91.32   24.70
   9  -7  -6   32.47   36.82
  -9   7   6  101.02   44.48
  -7  -7   6   14.34   17.62
  -7  -7   6   38.64   25.65
   7  -7  -6   62.72   42.24
  -7  -7   6   69.98   34.05
   7  -7  -6   27.12   40.76
   7   7  -6   52.73   18.25
  -7   7   6   23.71   34.82
   7   7  -6   51.90   25.14
   5  -7  -6   43.42   25.38
   5  -7  -6   56.45   26.42
  -5  -7   6   11.88   18.74
   5  -7  -6   82.32   45.11
   5  -7  -6  105.62   53.62
  -5  -7   6  122.27   37.61
  -5  -7   6   68.10   22.83
   5   7  -6  107.89   24.99
   5   7  -6   84.47   20.37
  -5   7   6   51.12   18.92
  -5   7   6  162.61   44.74
  -3  -7   6  145.92   32.97
   3  -7  -6  159.95   42.64
  -3  -7   6  175.32   49.24
   3  -7  -6  173.60   63.95
   3  -7  -6  242.30   38.46
   3  -7  -6  165.29   60.45
  -3   7   6  149.88   48.67
  -3   7   6  122.39   30.85
   3   7  -6  131.52   28.67
   3   7  -6  206.05   34.89
   1  -7  -6  120.07   57.02
   1  -7  -6  105.43   33.90
  -1  -7   6  168.87   50.16
  -1  -7   6  139.56   31.26
   1  -7  -6  172.69   40.84
   1  -7  -6  131.51   52.33
  -1   7   6  121.38   42.00
   1   7  -6  159.03   30.08
   1   7  -6  144.10   25.52
  -1   7   6   73.12   25.23
   1  -7   6  103.62   26.73
   1  -7   6  161.49   45.34
  -1  -7  -6  100.96   47.32
  -1  -7  -6   56.27   27.95
  -1  -7  -6  133.23   35.68
   1   7   6   66.00   23.45
   1   7   6  109.60   36.84
  -1   7  -6  134.44   27.89
   3  -7   6   96.10   42.98
  -3  -7  -6   69.64   38.77
  -3  -7  -6   64.18   27.85
  -3  -7  -6   73.52   28.06
  -3  -7  -6   51.01   35.98
   3  -7   6   72.00   24.36
   3   7   6   36.27   19.74
  -3   7  -6   99.52   25.11
   3   7   6   56.83   31.36
   5  -7   6   41.12   22.12
  -5  -7  -6   25.95   30.38
  -5  -7  -6   25.80   23.70
  -5  -7  -6   36.52   31.67
  -5  -7  -6    7.10   25.01
   5  -7   6   90.92   40.48
  -5   7  -6   48.30   22.87
   5   7   6   83.48   31.07
   5   7   6   45.61   20.13
  -5   7  -6   71.94   20.49
   7  -7   6   30.00   22.59
  -7  -7  -6   30.86   24.94
  -7  -7  -6   26.74   28.44
  -7  -7  -6    9.68   26.12
   7  -7   6   40.40   37.73
  -7   7  -6    1.37   21.52
   7   7   6   24.08   18.93
   7   7   6   22.76   27.57
   7   7   6   30.98   16.11
  -7   7  -6   58.58   21.33
   9  -7   6  136.23   42.41
  -9  -7  -6   19.24   22.74
  -9  -7  -6   24.08   31.71
   9  -7   6   87.91   32.24
  -9  -7  -6   11.58   25.65
   9   7   6   27.25   13.94
   9   7   6   11.84   18.63
  -9   7  -6   58.18   23.25
   9   7   6   44.04   31.09
 -11  -7  -6   31.69   30.06
  11  -7   6   94.49   35.09
  11  -7   6   35.17   24.64
 -11  -7  -6    4.33   28.71
  11  -7   6   47.72   37.74
 -11  -7  -6   51.83   28.20
  11   7   6   28.63   22.70
 -11   7  -6   66.32   24.38
  11   7   6   35.31   30.76
  11   7   6   19.99   11.57
  11   7   6   21.01   26.71
 -11   7  -6   19.27   39.10
 -13  -7  -6   -3.07   20.48
 -13  -7  -6  -14.40   17.06
  13  -7   6   20.39   23.99
 -13  -7  -6    3.58   29.71
  13  -7   6   23.65   32.31
  13  -7   6   13.94   36.49
 -13   7  -6   21.66   24.75
  13   7   6   13.58   24.93
  13   7   6   23.16   30.25
 -13   7  -6   -4.04   19.79
  13   7   6   23.06   21.53
  15  -7   6   -5.41   23.34
 -15  -7  -6    9.70   22.56
  15  -7   6   -0.56   30.89
 -15  -7  -6   -3.83   21.71
 -15  -7  -6   -5.79   26.04
 -15   7  -6   33.80   26.49
  15   7   6   15.86   26.84
 -15   7  -6   -7.71   17.81
  15   7   6   -4.95   24.47
  17  -7   6   35.55   38.69
  17  -7   6   12.73   27.75
 -17  -7  -6    9.32   21.08
 -17  -7  -6   25.22   34.92
 -17  -7  -6    2.24   24.18
  17   7   6   38.69   31.98
 -17   7  -6    5.40   22.99
 -17   7  -6    1.55   21.83
  17   7   6   55.09   30.64
  19  -7   6   43.52   40.90
 -19  -7  -6   -9.37   30.58
 -19  -7  -6    7.02   29.36
  19  -7   6    0.84   27.57
  19   7   6   -7.77   26.69
 -19   7  -6   23.31   25.93
  19   7   6   13.58   26.43
 -18  -8   6   80.80   34.56
 -18   8   6   87.90   30.81
 -18   8   6  -11.62   32.05
  16  -8  -6  203.63   82.54
  16  -8  -6   97.26   52.55
 -16  -8   6   65.81   39.41
 -16  -8   6   55.75   31.13
 -16   8   6   62.94   28.70
 -16   8   6  167.30   57.28
 -16   8   6  173.23   38.21
 -14  -8   6   92.63   41.44
  14  -8  -6  121.06   68.42
  14  -8  -6  203.10   66.86
 -14   8   6   79.34   31.51
 -14   8   6  202.58   38.91
 -14   8   6  212.90   57.25
 -12  -8   6  238.98   70.26
  12  -8  -6  236.41   72.95
  12  -8  -6  321.48   96.61
 -12  -8   6  180.55   43.55
 -12   8   6  287.18   50.06
 -12   8   6  309.68   69.13
 -10  -8   6  272.47   50.90
 -10  -8   6  291.86   74.76
  10  -8  -6  413.18  109.05
  10  -8  -6  296.75   82.68
 -10   8   6  336.04   75.29
 -10   8   6  341.44   53.18
   8  -8  -6  251.26   87.62
  -8  -8   6  212.73   60.32
   8  -8  -6  261.20   74.80
   8  -8  -6  247.84   56.86
  -8  -8   6  255.67   44.22
  -8   8   6  289.10   45.10
   8   8  -6  294.45   40.51
  -8   8   6  283.37   64.35
   8   8  -6  190.12   37.99
  -6  -8   6  268.61   45.27
   6  -8  -6  299.89   63.12
   6  -8  -6  248.99   73.95
   6  -8  -6  269.82   83.14
  -6  -8   6  187.83   61.40
   6   8  -6  275.37   41.50
  -6   8   6  305.78   62.96
   6   8  -6  290.93   41.19
  -4  -8   6  293.92   68.15
   4  -8  -6  319.15   92.36
   4  -8  -6  271.22   56.57
   4  -8  -6  353.29   87.21
  -4  -8   6  298.86   48.57
  -4   8   6  312.85   56.80
  -2  -8   6  293.27   53.26
   2  -8  -6  303.31   83.04
   2  -8  -6  315.43   61.55
  -2  -8   6  315.95   75.88
  -2   8   6  434.00   53.30
   0  -8  -6  283.14   84.04
   0  -8  -6  336.98   62.37
   0  -8  -6  333.54   87.83
   0  -8   6  319.70   55.23
   0  -8   6  437.85   75.17
   0   8   6  423.92   61.72
   0   8   6  376.85   53.04
   0   8   6  313.12   53.98
  -2  -8  -6  320.03   55.06
  -2  -8  -6  206.47   67.93
  -2  -8  -6  216.30   72.12
   2  -8   6  415.18   68.75
   2  -8   6  313.61   47.79
   2   8   6  237.24   44.66
   2   8   6  293.46   53.13
   2   8   6  240.30   43.33
   4  -8   6  237.92   47.08
   4  -8   6  202.56   57.33
  -4  -8  -6  264.57   54.59
  -4  -8  -6  137.19   59.81
  -4  -8  -6  268.33   76.80
   4   8   6  408.41   56.03
   4   8   6  301.13   45.38
   4   8   6  310.36   45.27
  -6  -8  -6  307.39   80.63
  -6  -8  -6  360.60   64.21
   6  -8   6  308.73   71.62
   6   8   6  303.78   52.89
   6   8   6  373.79   52.34
  -8  -8  -6  347.64   91.51
   8  -8   6  379.89   58.90
  -8  -8  -6  330.94   60.31
   8  -8   6  276.90   64.86
  -8   8  -6  239.66   48.37
   8   8   6  352.44   47.37
  -8   8  -6  285.88   47.14
   8   8   6  292.56   50.24
 -10  -8  -6  256.73   70.56
  10  -8   6  150.73   49.65
 -10  -8  -6  317.31   60.03
  10  -8   6  274.15   62.53
  10   8   6  266.67   38.62
  10   8   6  219.77   47.35
 -10   8  -6  250.47   44.44
  12  -8   6  184.54   53.31
 -12  -8  -6   80.11   44.49
  12  -8   6  129.74   35.71
 -12  -8  -6  222.94   69.10
  12  -8   6   95.91   41.54
 -12   8  -6  128.38   38.31
 -12   8  -6   40.96   34.41
  12   8   6  147.29   36.56
 -14  -8  -6  130.32   39.28
  14  -8   6  145.21   44.61
  14  -8   6   73.73   31.68
  14  -8   6  168.78   55.99
 -14  -8  -6  142.39   55.74
 -14  -8  -6   36.19   38.10
  14   8   6  145.04   46.82
  14   8   6   97.67   31.52
 -14   8  -6   25.25   33.22
 -16  -8  -6  118.51   38.28
  16  -8   6   16.13   39.12
 -16  -8  -6  105.46   52.63
  16  -8   6   54.91   31.28
 -16  -8  -6   29.58   33.47
  16   8   6  121.02   44.31
  16   8   6  134.89   36.20
 -16   8  -6   58.25   33.46
 -15  -9   6   13.22   23.99
 -15   9   6   -1.41    9.92
 -13  -9   6   16.25   26.93
  13  -9  -6   27.93   52.89
  13  -9  -6   32.73   41.54
 -13   9   6   14.62   15.71
 -13   9   6    8.31   21.49
  13   9  -6    0.54    7.28
 -13   9   6    0.15   15.35
 -11  -9   6    5.88   31.04
  11  -9  -6   18.88   37.76
 -11  -9   6   15.46   23.21
  11  -9  -6   61.33   60.34
 -11   9   6   42.42   17.44
  11   9  -6   -2.54    5.34
  11   9  -6   50.85   15.65
 -11   9   6    8.23   21.26
 -11   9   6   -0.20   13.45
   9  -9  -6   -3.57   21.68
  -9  -9   6    4.57   15.88
   9  -9  -6   48.86   42.63
   9  -9  -6   34.97   54.63
  -9  -9   6   23.94   19.42
  -9  -9   6   70.58   37.21
  -9   9   6   10.76   15.33
  -9   9   6    3.95   20.71
  -9   9   6   -5.75    9.45
   7  -9  -6   41.11   37.83
  -7  -9   6    3.60   17.13
   7  -9  -6    9.91   21.27
   7  -9  -6    4.85   42.03
  -7  -9   6   28.08   34.51
  -7   9   6   10.60   14.55
  -7   9   6   -9.68    9.13
  -7   9   6   17.89   19.96
  -5  -9   6    5.60   15.72
   5  -9  -6   35.07   41.70
  -5  -9   6    1.82   30.47
   5  -9  -6   15.02   20.58
   5  -9  -6   -0.21   30.09
  -5   9   6    2.62   12.92
  -5   9   6   -8.01   17.15
   3  -9  -6   -0.71   16.10
   3  -9  -6    8.03   26.92
  -3  -9   6    1.18   17.34
   3  -9  -6    2.54   35.02
  -3  -9   6   20.37   35.04
  -3   9   6    7.77   12.29
  -3   9   6    2.54   17.33
  -3   9   6  -16.46    8.35
  -1  -9   6   14.14   17.64
  -1  -9   6   27.63   33.99
   1  -9  -6   -4.95   15.82
   1  -9  -6   -8.83   26.62
   1  -9  -6   11.03   29.45
  -1   9   6    8.05   13.26
  -1   9   6    6.07   17.59
  -1  -9  -6   -4.63   26.79
  -1  -9  -6    4.69   28.55
   1  -9   6   31.07   35.69
   1  -9   6    5.48   16.77
  -1  -9  -6   -4.53   17.53
   1   9   6  -13.52    9.50
   1   9   6   10.40   16.33
  -3  -9  -6   -1.32   23.09
   3  -9   6   -0.20   32.78
  -3  -9  -6   -0.17   29.28
   3  -9   6    5.96   17.74
  -3  -9  -6   11.96   21.67
   3   9   6   -4.03   14.06
   3   9   6  -12.05    9.92
   3   9   6    9.14   11.30
   5  -9   6   -7.16   29.78
  -5  -9  -6    1.26   22.08
  -5  -9  -6    3.15   25.79
  -5  -9  -6    8.09   27.07
   5  -9   6    2.68   19.90
   5   9   6   -5.46   10.26
   5   9   6    4.31   15.54
   5   9   6   10.36   12.46
   7  -9   6   21.73   35.18
  -7  -9  -6   52.27   34.67
   7  -9   6   37.79   26.16
  -7  -9  -6   16.03   26.09
  -7  -9  -6   19.48   25.58
   7   9   6    5.11   13.01
   7   9   6   -3.81   14.16
   9  -9   6   50.43   35.45
  -9  -9  -6    0.13   23.67
  -9  -9  -6   41.67   39.43
   9  -9   6   39.08   28.82
  -9  -9  -6   11.22   26.80
   9   9   6   12.07   15.13
   9   9   6   20.41   15.65
  11  -9   6   33.91   30.76
  11  -9   6   68.41   40.80
 -11  -9  -6   19.58   34.99
 -11  -9  -6   11.33   26.45
 -11  -9  -6   -0.10   22.93
  11   9   6   11.96   15.83
  11   9   6   -5.01    8.41
  13  -9   6   56.99   38.61
 -13  -9  -6   -6.61   21.58
 -13  -9  -6   16.17   26.04
  13  -9   6   36.25   36.61
 -13  -9  -6    8.94   34.07
  13   9   6   41.59   17.63
 -13   9  -6   17.78   28.38
  13   9   6   -2.68    8.63
 -13   9  -6    0.49   14.63
 -13   9  -6   31.82   29.84
  10 -10  -6  252.46   84.14
  10 -10  -6  167.29   43.80
  10 -10  -6  143.19   57.70
 -10 -10   6   74.06   51.96
  -8 -10   6  124.79   50.46
   8 -10  -6  161.82   69.07
   8 -10  -6  113.55   49.33
   8 -10  -6  146.12   39.43
  -8 -10   6   81.43   27.52
  -8  10   6   99.35   32.15
   6 -10  -6  146.04   54.22
  -6 -10   6  114.53   48.03
   6 -10  -6  141.51   40.45
   6 -10  -6  174.33   71.24
  -6  10   6  101.75   32.48
  -4 -10   6  110.37   27.41
   4 -10  -6  172.31   59.33
   4 -10  -6  199.36   70.90
  -4 -10   6   91.53   45.40
  -4  10   6  196.84   40.33
   2 -10  -6  267.82   49.47
   2 -10  -6  232.11   69.62
   2 -10  -6  129.26   53.71
  -2 -10   6  152.92   55.42
  -2  10   6  155.65   38.13
   0 -10   6  133.43   49.96
   0 -10   6  234.62   36.13
   0 -10  -6  128.63   55.08
   0 -10  -6   66.61   50.63
   0  10   6  178.83   39.92
  -2 -10  -6  266.00   49.37
   2 -10   6  129.23   46.43
  -2 -10  -6  117.02   54.28
  -2 -10  -6  181.33   59.25
   2 -10   6  252.19   40.01
   2  10   6  214.07   42.83
  -4 -10  -6  216.87   74.14
   4 -10   6  251.70   44.94
  -4 -10  -6  283.02   53.80
   4  10   6  211.80   46.24
  -6 -10  -6  167.38   59.49
   6 -10   6  106.41   44.21
   6 -10   6  115.18   34.78
  -6 -10  -6  161.80   54.68
   6  10   6  235.56   39.67
  -8 -10  -6  100.45   50.24
   8 -10   6  172.74   41.19
  -8 -10  -6  109.33   52.05
  -8 -10  -6  297.63   52.67
   8 -10   6  127.87   48.66
   8  10   6  211.11   36.20
  10 -10   6  156.13   51.89
 -24   0   7    9.63   23.94
  24   0  -7  -20.56   37.72
  24   0  -7   58.16   54.30
  22   0  -7   -0.11   38.58
 -22   0   7   -1.93   21.75
  22   0  -7    4.51   39.70
 -20   0   7    7.87   22.05
  20   0  -7   34.64   43.72
  20   0  -7    3.40   36.90
  18   0  -7   31.09   40.37
  18   0  -7   37.49   37.97
  16   0  -7   89.36   47.14
 -16   0   7    9.49   18.45
  16   0  -7   43.39   41.26
 -16   0   7   47.48   34.77
 -14   0   7    0.37   15.18
  14   0  -7   36.59   39.86
 -14   0   7   -1.39   24.68
  14   0  -7   12.05   17.39
  14   0  -7   62.54   41.78
 -12   0   7   29.63   32.41
  12   0  -7   -1.40   15.14
 -12   0   7    4.85   26.85
  12   0  -7    6.83   31.11
 -12   0   7   11.60   15.86
  12   0  -7   21.11   31.67
  10   0  -7   71.04   41.77
  10   0  -7   78.50   40.79
  10   0  -7   67.71   24.31
 -10   0   7   64.68   24.58
 -10   0   7   68.86   37.06
 -10   0   7   54.34   34.26
  -8   0   7   80.15   40.21
   8   0  -7   68.57   26.29
   8   0  -7   83.89   42.53
   8   0  -7  131.93   53.09
  -8   0   7   78.47   41.59
  -8   0   7   74.45   26.03
  -6   0   7    5.50   24.64
   6   0  -7    0.47   24.94
  -6   0   7    6.08   14.58
   6   0  -7   36.30   33.23
  -6   0   7    5.38   25.45
   6   0  -7    3.19   14.86
   4   0  -7  102.59   30.53
  -4   0   7   93.60   41.66
   4   0  -7  174.56   56.72
  -4   0   7  125.20   31.70
  -4   0   7   58.86   36.34
   4   0  -7  152.30   59.00
   2   0  -7   87.50   26.98
   2   0  -7    9.12   26.93
  -2   0   7   78.29   25.09
  -2   0   7   19.70   29.15
   2   0  -7   73.38   40.77
  -2   0   7   22.80   26.36
   2   0  -7   55.32   21.59
   0   0  -7   -1.55   11.67
   0   0   7  -26.88   17.82
   0   0  -7   -0.87   13.41
   0   0  -7   -0.34   25.84
   0   0   7    9.67   16.31
   0   0  -7   17.77   26.07
   0   0   7   -0.28   17.47
  -2   0  -7   42.30   20.41
  -2   0  -7   25.91   30.44
   2   0   7   77.38   35.18
  -2   0  -7   45.53   22.39
  -2   0  -7   45.11   34.17
   2   0   7   66.89   26.10
  -4   0  -7   23.72   30.35
   4   0   7  106.52   31.49
  -4   0  -7   81.26   37.52
  -4   0  -7  105.21   32.48
   4   0   7   89.30   39.68
  -4   0  -7   84.83   26.59
  -6   0  -7   17.52   17.24
   6   0   7   26.61   30.57
   6   0   7    8.55   18.52
   6   0   7   11.96   20.35
  -6   0  -7   27.64   22.23
  -6   0  -7    8.95   20.43
  -6   0  -7   -3.96   24.06
  -8   0  -7   -6.09   19.35
  -8   0  -7   22.23   29.80
   8   0   7  -13.84   25.23
  -8   0  -7   -6.54   14.29
   8   0   7    3.75   19.27
   8   0   7    1.49   11.68
  -8   0  -7   13.12   21.24
   8   0   7   19.30   21.44
 -10   0  -7   -0.21   16.25
 -10   0  -7   -2.14   18.94
  10   0   7   13.31   22.76
 -10   0  -7  -17.68   14.34
  10   0   7    9.35   13.42
  10   0   7   -9.56   26.63
  10   0   7   17.07   21.59
 -10   0  -7  -11.90   21.38
  12   0   7   -3.41   22.77
  12   0   7  -17.88   20.36
 -12   0  -7   -4.02   24.38
 -12   0  -7  -20.76   15.84
  12   0   7    2.38   20.89
 -12   0  -7  -17.38   14.06
  12   0   7   -2.85   11.95
 -12   0  -7    6.32   17.95
  14   0   7   10.55   24.71
 -14   0  -7  -10.71   23.27
  14   0   7   19.94   30.06
 -14   0  -7   11.15   25.00
  14   0   7   18.85   14.05
  16   0   7   43.62   15.07
  16   0   7   39.56   32.45
  16   0   7   35.81   33.52
 -16   0  -7   23.31   36.99
 -18   0  -7   -0.66   32.11
  18   0   7   -1.45   26.87
  18   0   7    4.53   11.54
  18   0   7   -2.99   29.50
  20   0   7   36.90   38.76
 -20   0  -7  -16.19   28.06
  20   0   7   15.73   12.28
  20   0   7   11.04   32.06
  22   0   7    7.41   35.65
 -22   0  -7  -14.39   31.28
  22   0   7   14.22   34.13
  24   0   7   11.24   36.85
  24   0   7   45.42   44.20
 -24   0  -7    3.14   36.42
 -25  -1   7   54.14   31.04
  25  -1  -7   62.88   52.18
  25  -1  -7   83.21   58.34
  25   1  -7  126.58   60.71
  25   1  -7  143.55   59.91
 -25   1   7   46.40   30.76
  23  -1  -7   43.61   49.29
 -23  -1   7   42.96   28.33
  23  -1  -7   48.45   49.46
  23   1  -7   49.05   46.47
  23   1  -7   66.33   51.22
 -23   1   7   65.61   30.96
  21  -1  -7  123.07   60.47
  21  -1  -7   97.85   54.18
 -21  -1   7   51.16   29.97
  21   1  -7   46.24   48.98
  21   1  -7  107.87   56.38
 -21   1   7   89.08   32.42
  19  -1  -7  118.35   54.93
  19  -1  -7  227.91   73.17
  19   1  -7  141.13   61.45
  19   1  -7  176.72   61.58
 -17  -1   7  190.87   61.21
 -17  -1   7  258.63   48.74
  17  -1  -7  364.74   90.06
  17  -1  -7  200.15   70.58
  17   1  -7  300.57   82.45
  17   1  -7  360.46   81.63
  15  -1  -7  351.31   83.80
 -15  -1   7  216.34   47.92
  15  -1  -7  340.99   83.98
 -15  -1   7  140.12   58.83
  15   1  -7  338.10   81.42
 -15   1   7  270.61   46.78
  15   1  -7  292.11   48.19
 -15   1   7  162.22   62.58
  15   1  -7  465.25   91.99
 -13  -1   7  197.22   42.25
 -13  -1   7  150.32   52.43
  13  -1  -7  371.57   84.16
  13  -1  -7  244.52   68.18
  13  -1  -7  264.62   44.59
 -13  -1   7  149.46   52.39
 -13   1   7  263.05   42.64
  13   1  -7  230.57   45.92
  13   1  -7  337.10   74.70
  13   1  -7  132.44   53.88
 -13   1   7  205.22   58.89
 -11  -1   7  274.90   77.59
  11  -1  -7  302.76   79.28
 -11  -1   7  284.95   76.92
  11  -1  -7  400.20   93.46
  11  -1  -7  371.11   57.50
 -11  -1   7  344.45   54.82
  11   1  -7  386.45   86.84
  11   1  -7  329.22   56.07
 -11   1   7  358.40   55.12
  11   1  -7  403.94   85.91
 -11   1   7  216.84   74.06
 -11   1   7  344.26   83.54
  -9  -1   7  401.26   66.72
  -9  -1   7  408.51   84.17
   9  -1  -7  405.88   67.69
  -9  -1   7  451.18   82.42
   9  -1  -7  598.08   97.89
   9  -1  -7  586.46   95.62
  -9   1   7  488.81   83.38
   9   1  -7  629.94  110.94
   9   1  -7  347.64   66.52
  -9   1   7  317.37   88.27
   9   1  -7  474.38   87.83
  -9   1   7  490.82   67.65
   7  -1  -7  477.07   80.28
  -7  -1   7  564.15   81.42
  -7  -1   7  397.79   93.40
  -7  -1   7  561.37   95.75
   7  -1  -7  668.13  103.42
   7  -1  -7  645.19  108.09
   7   1  -7  640.90   98.66
  -7   1   7  570.92   94.93
  -7   1   7  384.68   92.76
   7   1  -7  514.73   80.31
   7   1  -7  643.84  102.77
  -7   1   7  653.38   81.94
  -5  -1   7  671.58  106.11
   5  -1  -7  598.69  112.30
  -5  -1   7  688.38   92.53
   5  -1  -7  606.71  108.30
   5  -1  -7  618.96   92.01
  -5  -1   7  453.58  102.56
  -5   1   7  687.98  105.93
   5   1  -7  617.05   91.04
   5   1  -7  663.51  110.64
   5   1  -7  631.62  106.32
  -5   1   7  699.19   92.07
  -3  -1   7  523.09   90.23
   3  -1  -7  471.25   93.66
  -3  -1   7  638.97   81.87
   3  -1  -7  529.48   80.68
   3  -1  -7  452.52   97.29
   3  -1  -7  585.52   80.52
   3   1  -7  454.87   77.89
  -3   1   7  589.13   80.75
   3   1  -7  579.04   94.57
   3   1  -7  533.01   78.84
   3   1  -7  487.60   95.08
  -3   1   7  558.47   90.44
   1  -1  -7  416.95   93.73
   1  -1  -7  452.16   76.95
   1  -1  -7  492.89   77.26
   1  -1  -7  530.94   94.75
  -1  -1   7  606.99   93.11
  -1  -1   7  574.93   79.60
  -1   1   7  527.07   89.43
  -1   1   7  570.86   79.23
   1   1  -7  521.60   90.93
   1   1  -7  530.80   77.81
   1   1  -7  541.88   77.64
   1   1  -7  480.74   94.23
  -1  -1  -7  585.25   86.36
  -1  -1  -7  387.22  107.09
   1  -1   7  640.98   87.96
  -1  -1  -7  582.87   86.26
   1  -1   7  666.41   99.86
  -1  -1  -7  591.52  101.94
  -1   1  -7  565.29   85.09
  -1   1  -7  537.61   84.39
  -1   1  -7  500.39   96.45
   1   1   7  649.35   87.77
   1   1   7  670.70   98.39
   3  -1   7  749.92  104.66
  -3  -1  -7  634.97   90.91
  -3  -1  -7  589.21  103.81
   3  -1   7  610.97   90.65
  -3  -1  -7  594.12   90.19
  -3  -1  -7  405.72  109.49
  -3   1  -7  620.26  102.89
  -3   1  -7  633.10   89.45
  -3   1  -7  611.85   89.54
   3   1   7  660.36   91.77
   3   1   7  714.44  102.42
  -3   1  -7  381.25  110.31
  -5  -1  -7  619.04   92.32
   5  -1   7  630.44   93.40
   5  -1   7  807.97  111.39
   5  -1   7  639.00   85.08
  -5  -1  -7  613.23  105.52
  -5  -1  -7  584.76   91.98
  -5   1  -7  539.06   90.29
  -5   1  -7  576.69  103.49
  -5   1  -7  592.98   90.29
   5   1   7  656.28  102.03
   5   1   7  648.25   93.40
   7  -1   7  544.77   63.98
   7  -1   7  434.78   72.40
   7  -1   7  597.98   87.77
   7  -1   7  428.34   72.68
  -7  -1  -7  403.54   93.72
  -7  -1  -7  404.28   70.93
  -7  -1  -7  316.25   69.87
   7   1   7  588.52   83.87
  -7   1  -7  463.95   70.76
  -7   1  -7  431.18   70.95
   7   1   7  442.51   74.21
  -7   1  -7  317.52   85.65
   7   1   7  378.79   70.73
  -9  -1  -7  318.81   63.56
   9  -1   7  400.94   66.85
  -9  -1  -7  241.75   72.46
   9  -1   7  496.19   70.60
  -9  -1  -7  305.78   61.91
   9   1   7  339.62   64.97
   9   1   7  382.26   53.79
   9   1   7  504.50   75.80
   9   1   7  305.16   65.52
  -9   1  -7  302.92   77.87
  -9   1  -7  468.83   64.57
  -9   1  -7  424.98   66.32
 -11  -1  -7  394.64   64.11
 -11  -1  -7  230.24   75.10
 -11  -1  -7  374.21   62.96
  11  -1   7  368.99   63.48
  11  -1   7  238.10   63.40
  11  -1   7  366.15   51.60
  11  -1   7  488.60   78.02
  11   1   7  305.22   49.74
 -11   1  -7  190.72   65.30
  11   1   7  332.52   71.96
  11   1   7  317.96   71.15
 -11   1  -7  384.42   60.05
  11   1   7  482.94   75.03
 -11   1  -7  351.83   63.23
  13  -1   7  411.84   95.56
 -13  -1  -7  165.90   65.95
  13  -1   7  351.38   48.68
  13  -1   7  262.31   60.60
 -13  -1  -7  271.97   57.78
  13  -1   7  273.67   64.19
 -13  -1  -7  338.87   61.07
  13   1   7  234.19   63.27
 -13   1  -7  201.57   64.82
  13   1   7  350.76   46.24
 -13   1  -7  392.86   63.67
  13   1   7  328.09   75.04
  15  -1   7  194.02   54.75
  15  -1   7  292.64   46.29
  15  -1   7  153.42   48.75
 -15  -1  -7  125.06   51.10
  15   1   7  162.10   48.37
  15   1   7  183.56   52.64
 -15   1  -7  150.60   49.34
  15   1   7  206.78   31.79
  17  -1   7  194.69   56.06
  17  -1   7  231.86   64.23
 -17  -1  -7  200.88   64.81
  17   1   7  206.44   61.82
  17   1   7  285.36   37.35
  17   1   7  221.91   58.26
 -17   1  -7  170.04   60.83
  19  -1   7  115.02   44.55
  19  -1   7   94.85   46.13
 -19  -1  -7  167.80   59.18
  19   1   7   67.48   41.05
  19   1   7  118.90   51.80
  19   1   7  173.02   24.92
 -19   1  -7  166.38   58.48
  21  -1   7   43.65   38.01
  21  -1   7   47.68   35.00
 -21  -1  -7   52.34   45.08
  21   1   7    4.20   34.15
  21   1   7   70.70   41.23
 -21   1  -7   50.29   44.20
  23  -1   7   66.84   40.57
 -23  -1  -7   -9.43   31.51
  23  -1   7   25.34   39.16
  23   1   7   84.61   40.90
  23   1   7   82.63   45.36
 -23   1  -7   -1.20   35.02
 -24  -2   7   21.04   26.64
  24  -2  -7   23.45   45.15
  24  -2  -7   58.49   54.21
  24   2  -7   64.21   54.82
 -24   2   7   12.49   24.56
  24   2  -7   45.81   48.52
  22  -2  -7    0.37   37.17
  22  -2  -7   21.53   46.20
 -22  -2   7   22.34   27.38
  22   2  -7   34.28   42.15
  22   2  -7   55.14   48.87
 -22   2   7   25.06   24.73
  20  -2  -7   43.96   48.14
  20  -2  -7   16.68   40.02
  20   2  -7   61.76   44.66
 -20   2   7   36.85   26.26
  20   2  -7   78.90   48.49
 -18  -2   7   37.71   35.88
  18  -2  -7   52.58   47.80
  18  -2  -7  106.36   59.00
  18   2  -7  150.87   55.09
  18   2  -7   76.03   44.20
  16  -2  -7   84.28   55.10
  16  -2  -7  121.00   56.43
 -16  -2   7  125.61   42.07
 -16   2   7   46.79   25.12
  16   2  -7  115.65   29.53
  16   2  -7  160.32   56.40
  16   2  -7   57.11   41.40
  14  -2  -7   54.98   42.47
 -14  -2   7   84.09   37.67
 -14  -2   7   42.58   22.39
  14  -2  -7   72.58   48.95
  14   2  -7   59.67   25.59
 -14   2   7   53.75   36.53
  14   2  -7   64.45   39.24
  14   2  -7   47.63   35.07
 -14   2   7   50.45   22.58
  12  -2  -7  118.26   53.45
  12  -2  -7   34.16   34.97
 -12  -2   7   86.65   27.84
 -12  -2   7   92.35   43.31
 -12  -2   7   96.36   42.56
  12  -2  -7  123.01   30.68
  12   2  -7   84.17   43.88
 -12   2   7   60.60   37.18
 -12   2   7   71.92   40.18
 -12   2   7   46.62   22.95
  12   2  -7   70.88   23.30
  12   2  -7   69.80   38.12
 -10  -2   7  119.94   45.03
  10  -2  -7  138.41   33.10
  10  -2  -7  162.69   61.63
  10  -2  -7  164.51   62.52
 -10  -2   7   97.23   32.39
 -10  -2   7  159.67   54.14
  10   2  -7  182.79   54.62
 -10   2   7  141.70   34.70
  10   2  -7  148.81   35.53
  10   2  -7  139.03   52.16
 -10   2   7  218.78   64.84
 -10   2   7   91.42   46.00
  -8  -2   7  167.03   35.73
   8  -2  -7  183.49   64.60
   8  -2  -7  117.45   33.59
   8  -2  -7  211.65   69.69
  -8  -2   7  163.61   50.73
  -8  -2   7   60.40   39.15
  -8   2   7  222.00   65.97
  -8   2   7  132.00   33.14
   8   2  -7  359.37   77.44
   8   2  -7  240.66   59.62
  -8   2   7  138.87   51.33
   8   2  -7  166.34   36.34
   6  -2  -7  119.28   55.68
  -6  -2   7   72.22   26.25
  -6  -2   7  151.72   48.71
  -6  -2   7   78.35   39.58
   6  -2  -7  109.28   50.67
   6  -2  -7  114.54   32.60
  -6   2   7   54.16   22.94
  -6   2   7   83.54   43.82
   6   2  -7  122.76   29.51
   6   2  -7  136.38   48.37
   6   2  -7  104.83   38.37
  -6   2   7   89.11   39.09
   4  -2  -7  107.64   50.05
   4  -2  -7  104.67   32.24
  -4  -2   7   96.08   28.68
   4  -2  -7  110.32   50.32
  -4  -2   7   44.73   34.96
  -4  -2   7  102.15   40.00
  -4   2   7   97.93   38.03
   4   2  -7  125.22   41.60
  -4   2   7   68.38   39.40
   4   2  -7  138.94   49.15
  -4   2   7   90.04   27.42
   4   2  -7  139.38   31.62
   4   2  -7  104.66   27.87
  -2  -2   7  123.85   32.36
  -2  -2   7  111.88   43.12
   2  -2  -7  113.29   34.04
   2  -2  -7  117.34   33.13
   2  -2  -7  155.38   59.79
   2  -2  -7  169.49   55.44
  -2  -2   7   66.34   38.94
   2   2  -7  108.55   30.48
  -2   2   7  112.16   30.67
   2   2  -7  117.50   48.80
  -2   2   7  152.62   50.19
   2   2  -7  147.05   33.17
  -2   2   7   64.66   37.39
   2   2  -7  166.90   47.44
   0  -2   7   29.38   27.46
   0  -2   7   26.02   31.85
   0  -2  -7   18.26   26.50
   0  -2   7   39.61   21.12
   0  -2  -7   42.65   20.92
   0  -2  -7   36.43   19.71
   0  -2  -7    6.13   29.48
   0   2   7   19.55   31.46
   0   2  -7   51.80   21.31
   0   2  -7   38.10   26.97
   0   2  -7   19.82   28.97
   0   2   7   24.86   19.37
   0   2  -7   48.55   20.24
   0   2   7   14.51   26.18
   2  -2   7   68.63   24.96
  -2  -2  -7   86.45   42.10
   2  -2   7   68.78   36.58
  -2  -2  -7   59.86   23.97
  -2  -2  -7   62.47   26.60
  -2  -2  -7   52.41   35.59
  -2   2  -7   52.11   21.47
  -2   2  -7   76.43   40.18
  -2   2  -7   78.77   24.76
   2   2   7   60.10   26.27
   2   2   7   30.04   34.22
  -2   2  -7   99.12   40.23
  -4  -2  -7   67.32   42.26
  -4  -2  -7  127.29   35.40
  -4  -2  -7  192.80   43.76
   4  -2   7  120.48   34.71
  -4  -2  -7   85.78   40.77
   4  -2   7  137.42   50.31
  -4   2  -7  219.23   43.70
  -4   2  -7  120.15   44.22
  -4   2  -7  132.67   48.88
  -4   2  -7  162.05   35.20
   4   2   7  145.00   36.57
   4   2   7  161.48   48.77
  -6  -2  -7   83.17   31.03
  -6  -2  -7   87.16   41.11
  -6  -2  -7  133.52   49.11
   6  -2   7  110.21   33.42
   6  -2   7  161.82   39.81
   6  -2   7   90.74   40.88
  -6  -2  -7  103.74   33.72
   6   2   7   92.07   39.94
  -6   2  -7   65.01   37.06
  -6   2  -7  132.92   32.84
  -6   2  -7   98.54   42.79
  -6   2  -7  200.19   41.68
   6   2   7   99.25   34.03
   8  -2   7   32.31   23.08
  -8  -2  -7   21.40   28.71
  -8  -2  -7   39.04   21.94
  -8  -2  -7   13.22   20.76
  -8  -2  -7   -3.27   21.15
   8  -2   7   32.66   24.72
   8  -2   7   57.72   43.70
   8   2   7   53.66   37.63
  -8   2  -7   21.11   27.83
   8   2   7   51.78   27.97
  -8   2  -7  102.71   27.41
   8   2   7   42.07   26.27
  -8   2  -7   30.47   28.25
  -8   2  -7   44.31   21.88
 -10  -2  -7   56.95   33.96
 -10  -2  -7  102.23   45.78
  10  -2   7  116.35   46.34
 -10  -2  -7   71.61   29.99
 -10  -2  -7  133.85   40.13
  10  -2   7  102.14   36.26
  10  -2   7   63.89   29.62
 -10   2  -7  120.75   31.85
 -10   2  -7  170.85   43.60
  10   2   7   93.77   21.83
 -10   2  -7   47.16   35.36
 -10   2  -7   50.32   32.29
  10   2   7  103.26   42.22
  10   2   7   98.72   37.10
  10   2   7   87.16   36.15
  12  -2   7   96.70   43.32
 -12  -2  -7   70.23   27.27
 -12  -2  -7   30.57   32.56
  12  -2   7   35.15   26.34
  12  -2   7   43.74   30.60
 -12  -2  -7   96.17   38.41
 -12  -2  -7   14.33   25.86
 -12   2  -7   31.80   30.35
  12   2   7   36.51   28.47
 -12   2  -7   22.03   28.20
  12   2   7   40.06   31.44
  12   2   7    8.87   28.04
 -12   2  -7   87.58   36.36
 -12   2  -7  122.17   37.07
  12   2   7   68.55   17.98
 -14  -2  -7   -1.72   24.28
  14  -2   7   48.22   34.27
  14  -2   7   22.50   26.63
 -14  -2  -7   31.63   37.01
 -14   2  -7  121.17   39.14
  14   2   7   50.40   32.13
  14   2   7   44.35   31.92
 -14   2  -7   45.86   31.36
  14   2   7   59.13   15.75
 -16  -2  -7   79.89   41.84
  16  -2   7    1.73   29.81
  16  -2   7   15.10   28.25
 -16   2  -7   39.63   38.56
  16   2   7   45.49   13.20
  16   2   7   75.64   38.65
  16   2   7   46.39   33.39
 -16   2  -7  128.83   40.81
  18  -2   7   25.80   36.02
 -18  -2  -7    5.36   30.87
  18  -2   7  -12.27   24.93
  18   2   7   12.05    8.55
  18   2   7   -4.31   27.80
 -18   2  -7    6.86   32.23
 -18   2  -7    1.66   42.57
  18   2   7   -1.86   25.56
  20  -2   7   27.34   39.35
  20  -2   7  -14.47   26.43
 -20  -2  -7   23.42   38.96
 -20   2  -7   22.22   39.52
  20   2   7   -0.71   28.53
  20   2   7   24.45   36.87
  22  -2   7   -2.29   31.28
 -22  -2  -7   25.22   41.34
  22  -2   7   16.32   35.35
  22   2   7   14.86   32.90
 -22   2  -7    3.18   37.43
  22   2   7   21.02   37.45
  24  -2   7   11.72   35.67
  24  -2   7  -13.22   37.33
 -24  -2  -7  -11.18   26.12
 -24   2  -7    1.91   36.47
  24   2   7    4.32   35.21
  24   2   7    3.47   35.02
  23  -3  -7   47.92   51.99
  23  -3  -7   82.19   60.44
 -23  -3   7   69.02   31.99
  23   3  -7   25.20   43.37
  23   3  -7   94.35   53.21
 -23   3   7   40.77   28.38
  21  -3  -7  107.08   66.08
 -21  -3   7  117.92   38.31
  21  -3  -7  170.41   70.56
  21   3  -7  121.97   53.72
 -21   3   7  100.47   36.82
  21   3  -7  162.57   53.76
  19  -3  -7  196.65   72.64
  19  -3  -7  234.27   75.27
 -19  -3   7  109.13   52.52
  19   3  -7  192.36   49.13
  19   3  -7  152.06   54.17
 -19   3   7  186.71   46.04
  19   3  -7  183.82   62.24
 -17  -3   7  184.31   63.12
  17  -3  -7  183.46   71.02
  17  -3  -7  278.03   83.17
 -17  -3   7  208.91   46.94
  17   3  -7  174.04   59.58
  17   3  -7  306.01   48.23
  17   3  -7  282.03   68.44
  15  -3  -7  390.49   97.47
  15  -3  -7  335.97   94.30
 -15  -3   7  250.53   68.67
 -15  -3   7  275.22   50.96
 -15   3   7  238.65   48.80
  15   3  -7  283.68   52.03
  15   3  -7  299.66   69.93
  15   3  -7  380.11   72.60
  13  -3  -7  417.04  101.17
 -13  -3   7  414.33   62.60
 -13  -3   7  275.27   78.93
  13  -3  -7  334.06   94.34
  13   3  -7  472.37   89.94
  13   3  -7  401.25   63.02
 -13   3   7  329.97   60.48
  13   3  -7  466.93   81.55
 -11  -3   7  499.82   93.18
  11  -3  -7  750.96  116.93
 -11  -3   7  442.52   95.49
 -11  -3   7  584.01   81.03
  11  -3  -7  715.56  137.33
 -11   3   7  415.80   95.52
 -11   3   7  487.22   79.14
  11   3  -7  641.87   95.78
  11   3  -7  498.33   80.65
 -11   3   7  502.05  116.66
  11   3  -7  714.86  101.87
   9  -3  -7  716.71  120.68
   9  -3  -7  678.83  115.50
   9  -3  -7  600.87   89.43
  -9  -3   7  671.36   88.79
  -9  -3   7  450.02   98.99
  -9  -3   7  596.07  101.86
   9   3  -7  550.34   86.82
  -9   3   7  626.12   87.37
   9   3  -7  590.25   97.74
  -9   3   7  573.09  103.86
   9   3  -7  664.74  105.31
   7  -3  -7  578.63   89.40
  -7  -3   7  664.22  102.69
   7  -3  -7  624.78  116.55
  -7  -3   7  427.69   98.19
   7  -3  -7  619.16  113.35
  -7  -3   7  623.31   88.77
   7   3  -7  604.22   87.43
  -7   3   7  547.46  102.11
   7   3  -7  694.99  103.78
  -7   3   7  682.72   88.89
   7   3  -7  647.30   98.22
   5  -3  -7  650.67  128.32
   5  -3  -7  697.51  125.64
  -5  -3   7  827.53  120.36
  -5  -3   7  824.51  106.30
   5  -3  -7  641.44  104.91
  -5   3   7  652.94  117.04
  -5   3   7  725.76  104.20
   5   3  -7  934.14  116.26
   5   3  -7  727.67  117.82
   5   3  -7  756.97  103.99
   3  -3  -7  792.10  130.57
   3  -3  -7  643.35  130.86
  -3  -3   7  954.98  124.92
   3  -3  -7  715.01  108.99
  -3  -3   7  923.57  111.35
   3  -3  -7  681.45  109.99
   3   3  -7  751.87  107.93
  -3   3   7  811.07  108.67
  -3   3   7  845.52  123.18
   3   3  -7  640.73  119.02
   3   3  -7  805.58  115.79
   3   3  -7  777.81  107.39
   1  -3  -7  839.74  111.81
   1  -3  -7  552.96  125.60
  -1  -3   7  793.33  110.58
  -1  -3   7  918.34  125.44
   1  -3  -7  814.29  130.05
   1  -3  -7  759.95  111.60
  -1   3   7  779.72  109.69
   1   3  -7  712.82  108.07
   1   3  -7  641.63  120.06
   1   3  -7  856.47  116.74
  -1   3   7  915.17  125.64
   1   3  -7  826.11  108.43
  -1  -3  -7  555.84  125.80
  -1  -3  -7  909.55  132.95
   1  -3   7  779.84  126.09
  -1  -3  -7  812.52  114.59
  -1  -3  -7  792.50  113.80
   1  -3   7  808.72  113.17
  -1   3  -7  838.04  110.91
   1   3   7  883.31  127.63
  -1   3  -7  803.71  111.34
  -1   3  -7  814.20  118.79
  -1   3  -7  667.56  124.52
   1   3   7  872.46  114.14
  -3  -3  -7  683.42  124.77
   3  -3   7  684.60  110.15
  -3  -3  -7  741.73  111.83
  -3  -3  -7  807.44  113.43
   3  -3   7  790.89  124.05
   3   3   7  800.13  123.67
   3   3   7  907.04  113.76
  -3   3  -7  765.19  109.69
  -3   3  -7  746.85  116.48
  -3   3  -7  848.96  110.27
  -5  -3  -7  619.58  117.40
  -5  -3  -7  659.77  104.72
   5  -3   7  620.56  103.19
   5  -3   7  938.56  121.31
  -5  -3  -7  730.44  106.68
  -5   3  -7  649.41  109.57
   5   3   7  749.58  105.52
  -5   3  -7  768.60  103.61
  -5   3  -7  667.26  101.91
   5   3   7  973.61  122.28
   7  -3   7  772.56  113.01
  -7  -3  -7  751.74  113.14
   7  -3   7  794.11  113.47
  -7  -3  -7  715.39  112.18
  -7  -3  -7  698.81  124.88
   7   3   7  837.93  117.48
  -7   3  -7  869.24  112.20
   7   3   7  871.51  125.34
   7   3   7  734.36  113.06
  -7   3  -7  758.97  118.59
  -7   3  -7  708.21  109.01
  -9  -3  -7  605.61  119.99
   9  -3   7  716.26  109.80
   9  -3   7  673.34  111.03
   9  -3   7  897.75  127.52
  -9  -3  -7  757.86  111.39
  -9  -3  -7  665.47  113.87
   9   3   7  787.69  114.88
   9   3   7  965.52  125.30
  -9   3  -7  802.59  108.24
   9   3   7  718.79  110.63
  -9   3  -7  619.33  114.44
  -9   3  -7  772.45  109.79
  11  -3   7  469.22   82.38
  11  -3   7  436.89   84.74
 -11  -3  -7  576.76   85.47
 -11  -3  -7  507.21  113.51
 -11   3  -7  635.78   83.48
  11   3   7  463.24   85.87
 -11   3  -7  309.63   88.60
  11   3   7  582.59   70.34
  11   3   7  501.91   85.27
 -11   3  -7  477.17   81.44
 -13  -3  -7  356.39   98.65
  13  -3   7  619.41   93.67
 -13  -3  -7  438.01   75.60
  13  -3   7  280.74   77.33
  13  -3   7  329.41   73.89
  13   3   7  442.89   79.53
  13   3   7  355.07   77.02
  13   3   7  512.00   60.90
 -13   3  -7  525.93   77.67
  15  -3   7  273.93   70.05
  15  -3   7  224.91   61.91
 -15  -3  -7  256.08   82.49
  15   3   7  391.70   45.46
  15   3   7  324.82   75.39
  15   3   7  336.01   73.98
 -15   3  -7  356.46   74.15
 -15   3  -7  199.49   64.88
  17  -3   7  158.67   52.97
 -17  -3  -7  198.69   67.70
  17  -3   7  142.91   47.70
  17   3   7  193.76   57.09
 -17   3  -7  136.06   49.88
 -17   3  -7  272.04   65.14
  17   3   7  217.97   59.89
  19  -3   7   94.06   45.17
  19  -3   7   82.11   38.91
 -19  -3  -7   39.35   41.60
 -19   3  -7  109.85   39.76
  19   3   7  114.76   47.37
  19   3   7   98.77   42.97
 -19   3  -7  188.88   56.57
  21  -3   7   93.48   46.69
 -21  -3  -7   67.19   45.98
  21  -3   7   57.14   36.71
  21   3   7  117.11   48.80
 -21   3  -7    2.49   32.35
  21   3   7  101.14   47.74
  23  -3   7   40.81   38.74
 -23  -3  -7   20.34   37.77
  23  -3   7   41.98   39.09
  23   3   7   44.75   42.17
  23   3   7   30.97   39.71
 -23   3  -7    7.37   38.03
  22  -4  -7   34.44   44.39
 -22  -4   7    5.36   27.01
  22  -4  -7   -8.87   43.83
  22   4  -7    3.86   37.37
  22   4  -7   26.43   40.65
 -22   4   7   17.69   24.17
 -20  -4   7    1.07   31.83
  20  -4  -7   -6.51   37.95
  20  -4  -7   88.60   57.42
 -20  -4   7   31.67   26.60
  20   4  -7  -13.63   32.52
  20   4  -7   33.71   24.58
  20   4  -7   25.95   37.30
 -20   4   7   20.99   23.39
 -18  -4   7   10.76   32.45
  18  -4  -7   30.59   47.97
  18  -4  -7    0.29   41.06
 -18   4   7   17.43   22.82
  18   4  -7   75.20   26.62
  18   4  -7   32.52   34.22
  18   4  -7   11.24   36.66
 -16  -4   7    7.48   29.64
 -16  -4   7    9.12   20.27
  16  -4  -7   17.28   39.65
  16  -4  -7   15.03   41.77
  16   4  -7    4.82   22.39
  16   4  -7    9.62   28.91
  16   4  -7   25.72   35.48
 -14  -4   7   22.78   20.04
  14  -4  -7   13.75   35.64
  14  -4  -7   27.10   40.66
 -14  -4   7    3.67   27.93
  14   4  -7   12.09   31.73
  14   4  -7    3.03   20.05
  14   4  -7   35.57   31.70
 -12  -4   7   58.13   23.28
  12  -4  -7   52.86   45.14
 -12  -4   7  124.28   47.37
  12  -4  -7   65.46   47.40
 -12  -4   7   38.50   36.12
  12   4  -7   75.37   37.64
  12   4  -7   49.18   23.35
 -12   4   7   44.56   42.94
 -12   4   7   23.28   17.82
  12   4  -7    4.39   23.87
  10  -4  -7   42.60   43.26
 -10  -4   7   25.82   32.67
 -10  -4   7   35.61   34.99
  10  -4  -7   20.74   39.78
 -10  -4   7   25.02   19.87
 -10   4   7   14.61   15.74
  10   4  -7   18.72   24.95
  10   4  -7   69.04   21.35
  10   4  -7   39.85   32.32
 -10   4   7   41.80   38.72
   8  -4  -7   87.24   49.86
   8  -4  -7   44.21   43.22
  -8  -4   7   25.03   20.21
   8  -4  -7   28.48   20.02
  -8  -4   7    2.63   24.90
  -8  -4   7    8.89   30.28
  -8   4   7   22.11   16.32
   8   4  -7   59.66   26.35
  -8   4   7   27.20   34.47
   8   4  -7   95.27   40.01
  -8   4   7   24.36   29.32
   8   4  -7   36.11   20.01
  -6  -4   7    4.24   27.60
   6  -4  -7   16.24   17.49
   6  -4  -7   -7.82   27.55
  -6  -4   7   -0.91   16.60
  -6  -4   7   -2.80   20.55
   6  -4  -7   -6.99   26.33
   6   4  -7   26.72   18.31
   6   4  -7   31.11   29.48
  -6   4   7   -7.13   20.63
   6   4  -7   35.61   20.95
  -6   4   7   21.20   33.58
  -6   4   7    7.21   14.67
  -4  -4   7   -9.05   18.76
  -4  -4   7   13.49   32.62
  -4  -4   7    2.20   17.02
   4  -4  -7   -7.06   24.59
   4  -4  -7   19.17   18.80
   4  -4  -7    7.36   15.33
   4  -4  -7   18.60   31.78
   4   4  -7   -2.93   21.63
   4   4  -7   26.52   16.75
  -4   4   7   21.49   30.97
   4   4  -7   30.09   19.86
  -4   4   7   17.85   31.76
   4   4  -7    8.97   15.77
  -4   4   7    7.77   15.23
   2  -4  -7   59.13   26.34
  -2  -4   7    7.91   24.34
  -2  -4   7   80.13   27.72
  -2  -4   7   85.91   40.52
   2  -4  -7  151.09   55.68
   2  -4  -7   47.35   24.10
   2  -4  -7   79.30   48.91
   2   4  -7   73.57   35.18
   2   4  -7  104.97   27.79
   2   4  -7   85.48   22.19
  -2   4   7   66.36   25.02
  -2   4   7   79.39   40.81
   2   4  -7   48.61   21.91
  -2   4   7  107.16   44.23
   0  -4  -7   12.53   28.29
   0  -4   7   -3.78   27.14
   0  -4  -7   -1.49   22.25
   0  -4   7   41.70   21.48
   0  -4  -7   44.87   21.86
   0  -4  -7   16.05   18.01
   0   4   7   19.38   29.42
   0   4  -7   36.49   19.20
   0   4   7   30.85   32.47
   0   4  -7   28.58   15.96
   0   4  -7   36.59   16.07
   0   4  -7   23.53   28.29
   0   4   7    2.10   15.30
   2  -4   7   32.40   35.24
  -2  -4  -7    0.59   22.23
  -2  -4  -7   -9.60   21.64
  -2  -4  -7   -8.84   12.83
   2  -4   7   26.46   19.29
  -2  -4  -7    6.21   16.49
  -2   4  -7    9.34   23.79
  -2   4  -7   23.36   15.55
  -2   4  -7   19.54   15.54
   2   4   7  -26.60   10.89
  -2   4  -7   26.78   19.40
   2   4   7   17.22   33.13
  -4  -4  -7   45.89   33.64
  -4  -4  -7   55.78   37.49
  -4  -4  -7   40.53   23.18
   4  -4   7   41.24   24.72
   4  -4   7  114.00   46.38
  -4  -4  -7  119.47   31.35
  -4   4  -7   71.34   23.79
  -4   4  -7   86.12   28.78
  -4   4  -7  119.94   27.04
   4   4   7   51.87   26.43
   4   4   7   35.75   35.07
  -4   4  -7   62.09   34.28
   6  -4   7   10.26   34.95
  -6  -4  -7   18.86   21.23
   6  -4   7    8.94   20.32
  -6  -4  -7    8.21   23.38
  -6  -4  -7   25.66   22.32
  -6  -4  -7   20.63   25.30
   6   4   7   36.53   32.62
  -6   4  -7    5.84   20.88
  -6   4  -7   12.69   19.13
   6   4   7   49.81   23.98
  -6   4  -7   39.06   19.82
  -6   4  -7    7.59   23.06
   8  -4   7   59.06   46.93
   8  -4   7   43.00   23.92
   8  -4   7    9.36   22.48
  -8  -4  -7   11.07   23.62
  -8  -4  -7   31.17   23.78
  -8  -4  -7   11.46   26.77
  -8  -4  -7   25.66   24.60
  -8   4  -7   24.03   24.05
  -8   4  -7   44.01   21.97
   8   4   7  -13.77   23.19
   8   4   7   16.62   21.37
   8   4   7    8.14   23.51
  -8   4  -7   18.84   28.51
  -8   4  -7   64.73   24.31
 -10  -4  -7    7.62   22.87
  10  -4   7   45.73   27.13
  10  -4   7   69.00   31.66
 -10  -4  -7   68.93   41.27
 -10  -4  -7   70.14   31.82
  10  -4   7  141.71   49.45
  10   4   7   99.24   38.11
  10   4   7   81.87   33.53
 -10   4  -7  177.35   36.73
  10   4   7   40.01   30.58
 -10   4  -7   61.88   26.03
 -10   4  -7   37.65   34.13
 -10   4  -7   79.16   33.51
 -12  -4  -7    8.60   28.95
 -12  -4  -7   16.21   21.87
 -12  -4  -7   -1.50   23.62
  12  -4   7   43.25   29.80
  12  -4   7   40.14   42.21
  12  -4   7   19.55   25.21
  12   4   7   -4.82   20.49
 -12   4  -7   66.54   29.98
  12   4   7   29.84   29.79
  12   4   7   22.12   12.78
 -12   4  -7   66.85   33.15
 -12   4  -7   -3.58   19.88
  14  -4   7   22.29   25.97
 -14  -4  -7   29.93   32.89
 -14  -4  -7   12.56   23.89
  14  -4   7   -0.88   29.18
 -14  -4  -7    4.18   23.32
  14   4   7   16.81   27.65
 -14   4  -7    4.32   27.72
 -14   4  -7   12.61   27.84
 -14   4  -7    5.04   27.27
  14   4   7   27.73   11.12
  14   4   7   35.63   30.71
 -16  -4  -7   18.87   28.80
 -16  -4  -7   10.86   31.03
  16  -4   7    5.63   31.25
  16  -4   7    8.55   28.05
  16   4   7  -12.95   23.05
  16   4   7   19.70   27.65
 -16   4  -7   40.74   31.02
 -16   4  -7    8.82   32.51
  18  -4   7   31.33   31.80
  18  -4   7   24.72   37.81
 -18  -4  -7   -8.01   27.21
 -18   4  -7   15.67   36.63
 -18   4  -7   -7.02   27.49
  18   4   7   40.58   34.86
  18   4   7   21.09   32.64
  20  -4   7   -5.67   33.95
 -20  -4  -7   25.84   36.12
  20  -4   7   30.79   35.87
 -20   4  -7  -15.08   27.12
 -20   4  -7   25.78   38.19
  20   4   7   16.57   32.21
  20   4   7    9.66   30.92
 -22  -4  -7   -6.28   28.26
  22  -4   7   -7.11   30.39
  22  -4   7   25.02   40.44
  22   4   7  -10.10   29.29
 -22   4  -7   28.14   36.32
 -22   4  -7   15.95   54.27
  22   4   7    8.36   33.18
 -21  -5   7   22.92   29.53
  21  -5  -7   23.80   45.77
  21  -5  -7   50.40   55.14
 -21  -5   7   25.05   41.41
  21   5  -7   68.32   34.07
 -21   5   7   80.95   32.90
  21   5  -7  -24.15   14.66
  21   5  -7   93.94   44.18
  19  -5  -7  116.02   62.23
  19  -5  -7  136.12   66.20
 -19  -5   7   46.97   44.92
 -19   5   7  106.15   35.31
  19   5  -7   36.80   33.95
  19   5  -7   61.59   30.75
  19   5  -7  112.38   45.98
  17  -5  -7  146.70   66.48
  17  -5  -7  120.32   66.02
 -17  -5   7   41.82   42.87
 -17   5   7  125.56   35.33
  17   5  -7  120.08   37.05
  17   5  -7   68.94   31.13
  17   5  -7  108.05   41.52
 -15  -5   7  138.68   36.20
  15  -5  -7  190.67   74.14
 -15  -5   7   98.16   45.19
  15  -5  -7  209.33   75.54
  15   5  -7  130.59   31.72
 -15   5   7  184.11   40.87
  15   5  -7  178.82   52.98
  15   5  -7  107.89   35.88
 -13  -5   7  229.70   92.38
  13  -5  -7  225.57   72.49
  13  -5  -7  174.50   72.64
 -13  -5   7  158.78   51.27
 -13  -5   7  186.07   42.23
  13   5  -7  267.49   60.64
  13   5  -7  231.94   39.20
  13   5  -7  219.07   45.95
 -11  -5   7  163.78   57.58
  11  -5  -7  292.60   80.92
 -11  -5   7  126.23   53.21
 -11  -5   7  237.01   43.29
  11  -5  -7  240.18   81.64
  11   5  -7  252.92   39.51
 -11   5   7  235.61   73.91
 -11   5   7  228.99   42.71
  11   5  -7  347.66   68.52
  11   5  -7  195.28   42.71
  -9  -5   7  377.36   79.91
  -9  -5   7  136.08   53.04
   9  -5  -7  314.26   87.11
  -9  -5   7  269.21   47.38
   9  -5  -7  409.99  102.98
   9   5  -7  327.17   61.11
  -9   5   7  288.13   45.65
  -9   5   7  364.04   90.54
   9   5  -7  195.49   40.88
   9   5  -7  265.35   40.33
  -7  -5   7  266.61   47.88
  -7  -5   7  200.34   58.60
   7  -5  -7  187.94   70.01
   7  -5  -7  313.42   88.78
  -7   5   7  427.44   96.79
   7   5  -7  303.40   59.74
  -7   5   7  281.00   46.46
   5  -5  -7  227.92   49.21
  -5  -5   7  202.35   62.12
  -5  -5   7  244.09   46.58
   5  -5  -7  302.69   85.18
   5  -5  -7  360.22   97.57
   5  -5  -7  259.63   46.14
  -5   5   7  419.89   91.38
   5   5  -7  291.02   45.04
   5   5  -7  247.05   58.61
  -5   5   7  233.23   44.05
  -3  -5   7  320.72   56.94
   3  -5  -7  374.99   93.76
   3  -5  -7  316.45   59.91
   3  -5  -7  385.31   59.07
   3  -5  -7  354.81   92.42
  -3  -5   7  524.90   81.54
   3   5  -7  359.81   67.29
  -3   5   7  351.17   55.90
   3   5  -7  279.51   53.97
  -3   5   7  481.86   92.92
   1  -5  -7  603.75  127.24
  -1  -5   7  765.51  100.73
   1  -5  -7  578.43   81.79
   1  -5  -7  522.59   82.15
   1  -5  -7  494.37  114.66
   1   5  -7  494.00   85.83
  -1   5   7  528.77   92.48
   1   5  -7  426.07   75.51
  -1   5   7  551.29   78.38
  -1  -5  -7  291.73   92.12
  -1  -5  -7  380.76   68.77
   1  -5   7  420.66   66.70
   1  -5   7  493.62   87.51
  -1  -5  -7  526.60  111.64
  -1  -5  -7  440.43   68.09
   1   5   7  386.73   65.19
  -1   5  -7  416.68   75.46
   1   5   7  617.52   85.90
  -1   5  -7  416.47   64.86
  -3  -5  -7  262.40   58.14
  -3  -5  -7  317.42   81.54
  -3  -5  -7  132.73   59.21
   3  -5   7  193.88   45.16
  -3  -5  -7  250.35   48.10
  -3   5  -7  185.30   52.82
   3   5   7  450.87   88.28
   3   5   7  245.62   49.26
  -3   5  -7  280.44   44.86
   5  -5   7  260.83   67.65
  -5  -5  -7  229.16   64.38
  -5  -5  -7  222.97   56.78
  -5  -5  -7  199.76   49.82
   5  -5   7  198.03   43.88
  -5  -5  -7   91.48   51.31
   5   5   7  206.28   44.88
  -5   5  -7  252.68   41.89
  -5   5  -7  106.57   47.55
   5   5   7  318.05   70.34
   7  -5   7  310.53   64.23
  -7  -5  -7  225.67   76.28
  -7  -5  -7  332.95   65.50
   7  -5   7  585.95   87.92
   7   5   7  611.30  105.00
   7   5   7  340.60   63.21
  -7   5  -7  444.55   61.73
   9  -5   7  240.01   54.86
   9  -5   7  390.83   81.04
  -9  -5  -7  295.02   57.06
   9  -5   7  255.17   52.94
  -9  -5  -7  163.35   65.28
  -9   5  -7  178.82   59.93
   9   5   7  364.53   67.58
   9   5   7  506.03   90.37
  -9   5  -7  331.65   52.58
  11  -5   7  143.26   48.52
  11  -5   7  402.98   80.67
  11  -5   7  172.90   46.60
 -11  -5  -7  222.97   53.49
 -11  -5  -7  169.23   64.17
  11   5   7  496.61  102.85
  11   5   7  240.25   56.21
  11   5   7  300.24   67.11
 -11   5  -7  198.13   38.85
 -11   5  -7  204.99   38.32
 -13  -5  -7  289.67   48.53
  13  -5   7  271.85   70.92
 -13  -5  -7  189.44   62.30
  13  -5   7  133.44   49.24
  13  -5   7  158.96   47.95
  13   5   7  198.93   59.17
 -13   5  -7  183.79   42.86
  13   5   7  218.69   57.20
 -13   5  -7  236.36   43.25
  13   5   7  228.85   32.23
 -15  -5  -7  118.66   51.35
  15  -5   7  165.49   47.92
  15  -5   7   99.44   37.88
 -15  -5  -7   37.14   38.51
 -15   5  -7  153.23   36.71
  15   5   7  132.35   43.63
 -15   5  -7   50.38   39.35
  15   5   7  201.92   51.48
 -15   5  -7   84.43   33.70
 -17  -5  -7   11.58   31.93
  17  -5   7   41.26   37.98
  17  -5   7   73.31   35.12
 -17  -5  -7   54.55   35.38
 -17   5  -7  -16.91   20.10
  17   5   7  106.92   42.54
  17   5   7  104.17   41.35
 -17   5  -7    9.56   32.52
 -17   5  -7   30.08   29.67
  19  -5   7   29.83   31.59
 -19  -5  -7   30.48   40.69
  19  -5   7   12.26   40.65
 -19   5  -7  -14.12   18.42
 -19   5  -7   28.01   29.28
  19   5   7   34.67   34.93
  19   5   7   94.54   40.32
  21  -5   7   46.35   36.37
 -21  -5  -7   67.76   45.97
  21  -5   7   54.58   47.10
 -21   5  -7    3.49   24.01
  21   5   7   92.30   42.60
 -21   5  -7   55.23   32.03
  21   5   7   41.27   40.83
 -20  -6   7    0.68   34.96
  20  -6  -7   -0.41   43.07
  20  -6  -7   43.06   54.09
 -20  -6   7    8.65   27.31
  20   6  -7    1.02   11.62
  20   6  -7  -23.89   11.92
  20   6  -7   -8.08   10.68
 -20   6   7   32.42   26.12
 -18  -6   7   46.60   44.40
  18  -6  -7   16.16   47.85
  18  -6  -7   -4.01   40.53
 -18   6   7   12.46   22.97
  18   6  -7   -2.50   10.42
  18   6  -7    6.18    9.57
  18   6  -7    8.31   20.93
  16  -6  -7   10.59   48.96
 -16  -6   7   21.71   34.57
 -16  -6   7   25.97   23.38
  16  -6  -7   44.66   51.08
  16   6  -7  107.60   33.77
  16   6  -7   -4.25   10.45
 -16   6   7   15.09   21.43
  14  -6  -7   47.43   49.42
 -14  -6   7   42.93   23.30
  14  -6  -7   -0.03   37.79
 -14  -6   7   -0.09   29.73
  14   6  -7   53.48   35.99
 -14   6   7   26.16   22.17
  12  -6  -7  110.48   56.14
 -12  -6   7   45.25   24.08
 -12  -6   7   48.54   41.66
 -12  -6   7   77.53   42.08
  12  -6  -7   39.26   52.65
  12   6  -7   92.75   37.88
 -12   6   7  153.52   59.24
  10  -6  -7   47.57   50.63
 -10  -6   7    8.61   27.90
 -10  -6   7   57.75   24.00
 -10  -6   7  164.08   53.65
  10  -6  -7  151.26   60.04
  10   6  -7   73.36   34.37
 -10   6   7   30.14   44.15
 -10   6   7   54.96   22.43
  -8  -6   7  106.64   44.78
  -8  -6   7   53.78   22.40
   8  -6  -7   42.56   46.29
  -8  -6   7   13.18   27.59
   8  -6  -7   37.20   44.25
   8   6  -7   73.22   33.18
  -8   6   7   43.22   20.32
  -8   6   7   35.70   41.59
  -6  -6   7   19.37   36.50
   6  -6  -7   58.12   47.46
   6  -6  -7   26.82   37.50
  -6  -6   7   42.11   27.90
   6  -6  -7   23.73   22.84
  -6  -6   7   41.81   21.84
   6   6  -7   49.43   30.44
  -6   6   7   21.80   16.83
  -6   6   7   68.96   42.45
   6   6  -7   56.38   20.49
   4  -6  -7  117.46   56.82
  -4  -6   7  201.00   59.24
  -4  -6   7   75.92   27.87
   4  -6  -7  105.82   53.76
   4  -6  -7   94.54   33.93
  -4   6   7  105.45   29.72
  -4   6   7  164.76   54.72
   4   6  -7  165.89   43.06
   4   6  -7  125.68   29.88
   2  -6  -7  139.16   42.41
  -2  -6   7  271.30   72.84
  -2  -6   7  224.21   42.69
   2  -6  -7  142.40   59.24
   2  -6  -7  197.22   73.17
  -2   6   7  156.71   38.96
  -2   6   7  242.69   68.47
   2   6  -7  274.80   50.44
   2   6  -7  202.62   38.08
   0  -6  -7   55.90   43.25
   0  -6   7  166.31   52.00
   0  -6  -7   55.72   26.84
   0  -6   7  127.72   31.38
   0  -6  -7   62.02   40.63
   0   6   7   62.27   25.00
   0   6  -7  124.52   40.21
   0   6  -7  131.09   27.93
   0   6   7   50.32   40.93
  -2  -6  -7   60.27   27.24
  -2  -6  -7   41.90   36.60
  -2  -6  -7   52.45   39.60
   2  -6   7  154.60   55.33
   2  -6   7   99.19   27.89
   2   6   7   65.59   25.40
  -2   6  -7  136.96   39.38
   2   6   7   41.49   37.56
  -4  -6  -7   23.37   32.62
   4  -6   7  139.46   50.71
   4  -6   7   76.88   28.50
  -4  -6  -7    1.22   26.60
  -4  -6  -7   76.13   30.25
  -4   6  -7  107.93   36.17
  -4   6  -7  114.02   27.56
   4   6   7   69.48   25.84
   4   6   7  172.38   48.01
  -6  -6  -7    6.54   25.64
  -6  -6  -7   10.24   26.91
   6  -6   7   63.47   50.21
   6  -6   7   38.66   24.91
  -6  -6  -7   28.44   24.10
   6   6   7   15.91   20.53
   6   6   7   27.78   32.15
  -6   6  -7   55.38   23.06
  -6   6  -7   47.86   31.82
  -8  -6  -7    2.94   26.84
   8  -6   7   81.07   31.31
  -8  -6  -7   76.82   31.77
  -8  -6  -7   34.92   34.75
   8  -6   7  121.02   53.31
   8   6   7   39.05   25.98
  -8   6  -7  105.55   39.88
   8   6   7   29.25   32.68
 -10  -6  -7   -0.30   23.49
 -10  -6  -7   37.84   37.25
  10  -6   7  109.31   51.27
  10  -6   7   56.72   31.02
 -10  -6  -7   49.44   26.12
  10  -6   7   72.29   29.80
  10   6   7   51.39   26.78
  10   6   7   41.05   33.87
 -10   6  -7   54.22   33.16
 -12  -6  -7   -3.62   25.76
  12  -6   7   45.12   28.80
 -12  -6  -7   27.36   25.68
  12  -6   7   53.15   32.65
 -12  -6  -7    8.82   24.98
  12  -6   7   17.13   38.89
  12   6   7   15.93   29.47
 -12   6  -7   11.55   29.19
  12   6   7   23.40   11.91
  12   6   7   29.70   26.94
  14  -6   7   17.21   27.10
 -14  -6  -7   24.11   34.75
 -14  -6  -7    1.89   23.18
  14  -6   7   -3.03   30.28
 -14  -6  -7   -4.52   18.26
 -14   6  -7   -7.79   25.08
  14   6   7   -3.89   26.24
  14   6   7   -8.44   20.51
 -16  -6  -7  -14.73   26.41
 -16  -6  -7   12.36   29.44
  16  -6   7   54.47   33.62
  16  -6   7   21.73   35.19
  16   6   7  -14.14   20.50
  16   6   7   22.63   32.02
 -16   6  -7   -5.63   24.60
  18  -6   7   40.24   36.43
 -18  -6  -7  -16.95   17.65
 -18  -6  -7  -14.20   26.83
  18  -6   7   25.04   31.96
  18   6   7    5.56   26.61
 -18   6  -7  -13.73   18.93
  18   6   7   38.56   34.75
  17  -7  -7  150.18   62.41
  17  -7  -7   95.51   70.96
 -17  -7   7   33.96   39.94
 -17   7   7  147.25   37.36
 -15  -7   7   75.83   43.74
  15  -7  -7  166.41   73.34
 -15  -7   7  122.32   34.69
  15  -7  -7  150.84   65.73
 -15   7   7  213.44   42.28
  13  -7  -7  207.46   73.75
  13  -7  -7  173.89   72.81
 -13  -7   7  113.70   51.33
 -13  -7   7  166.66   39.44
 -13   7   7  214.39   76.65
 -13   7   7  274.94   48.33
  11  -7  -7  284.73   85.73
 -11  -7   7  225.51   71.94
  11  -7  -7  293.69   93.01
 -11  -7   7  235.72   49.86
 -11   7   7  406.17   88.41
 -11   7   7  309.88   52.82
   9  -7  -7  321.03   97.58
  -9  -7   7  284.93   52.67
   9  -7  -7  451.29  103.92
  -9  -7   7  287.59   76.20
  -9   7   7  383.72   86.77
  -7  -7   7  492.95   83.49
   7  -7  -7  322.10  101.61
  -7  -7   7  359.86   62.00
   7  -7  -7  357.54   68.14
   7  -7  -7  500.64  114.06
   7   7  -7  456.00   61.10
  -7   7   7  473.63   80.29
  -7   7   7  325.39   59.97
   5  -7  -7  330.17   93.49
  -5  -7   7  287.85   75.14
   5  -7  -7  293.64   67.41
   5  -7  -7  256.96   87.41
  -5  -7   7  304.42   54.16
  -5   7   7  435.79   86.83
   5   7  -7  352.24   52.16
  -5   7   7  304.61   51.91
  -3  -7   7  363.68   67.02
   3  -7  -7  457.55   75.20
  -3  -7   7  488.68   88.93
   3  -7  -7  397.20  104.32
   3  -7  -7  526.03  124.29
  -3   7   7  515.64   86.33
   3   7  -7  415.19   64.11
  -3   7   7  476.44   66.94
   1  -7  -7  580.05   94.25
   1  -7  -7  509.22  126.03
  -1  -7   7  554.46   89.01
   1  -7  -7  609.74  134.23
  -1  -7   7  698.19  110.61
   1   7  -7  674.51   92.24
  -1   7   7  734.34  103.71
  -1   7   7  648.60   88.32
   1   7  -7  556.48   84.68
  -1  -7  -7  395.22  107.33
  -1  -7  -7  439.65   79.53
  -1  -7  -7  443.82  114.54
   1  -7   7  606.82  100.32
   1  -7   7  473.63   75.65
   1   7   7  591.90   89.25
   1   7   7  457.96   73.39
  -1   7  -7  531.14   71.47
  -1   7  -7  500.18   76.85
   3  -7   7  299.27   59.52
  -3  -7  -7  236.25   82.37
  -3  -7  -7  301.11   63.43
  -3  -7  -7  235.42   80.79
   3  -7   7  415.60   88.08
  -3   7  -7  450.50   56.84
   3   7   7  364.05   58.25
   3   7   7  421.05   71.73
  -3   7  -7  373.33   61.99
   5  -7   7  335.54   60.40
  -5  -7  -7  183.74   70.64
  -5  -7  -7  411.43   66.79
   5  -7   7  287.45   76.19
  -5  -7  -7  392.06   96.14
   5   7   7  497.39   76.65
   5   7   7  360.19   58.52
  -5   7  -7  391.52   56.29
  -5   7  -7  274.30   61.76
   7  -7   7  377.25   76.88
   7  -7   7  570.67   96.36
  -7  -7  -7  527.75   83.74
  -7  -7  -7  349.00  100.50
   7   7   7  699.49   91.42
  -7   7  -7  541.76   74.01
   7   7   7  402.94   74.83
   9  -7   7  265.43   75.60
  -9  -7  -7  244.05   80.56
  -9  -7  -7  339.56   63.32
   9  -7   7  225.72   57.97
  -9  -7  -7  177.49   66.30
   9   7   7  313.91   57.15
  -9   7  -7  394.49   57.79
   9   7   7  372.32   48.10
  11  -7   7  156.47   52.79
  11  -7   7  239.76   71.00
 -11  -7  -7  398.02   60.71
 -11  -7  -7  211.54   71.01
  11   7   7  288.83   39.36
  11   7   7  185.96   51.32
 -13  -7  -7  183.97   62.10
  13  -7   7  118.90   46.31
 -13  -7  -7  221.13   52.96
  13  -7   7  121.34   41.92
 -13  -7  -7   61.27   46.67
  13   7   7  229.89   59.55
  13   7   7  241.87   52.25
  15  -7   7   71.25   43.86
 -15  -7  -7   79.71   46.99
  15  -7   7  115.17   40.35
 -15  -7  -7  184.45   58.48
  15   7   7  202.41   57.27
  15   7   7  200.21   48.79
  17  -7   7   64.64   42.42
 -17  -7  -7   17.12   38.68
 -17  -7  -7    6.15   25.69
  17  -7   7   73.39   35.53
  17   7   7  119.00   47.41
  17   7   7  111.46   35.87
 -17   7  -7    3.31   26.12
 -16   8   7   29.97   23.95
 -14  -8   7    9.90   29.99
  14  -8  -7  -25.93   35.67
  14  -8  -7   10.63   40.55
  14   8  -7    0.31    8.95
 -14   8   7    3.77   19.45
 -14   8   7   45.12   45.65
  12  -8  -7   14.21   38.82
 -12  -8   7   12.21   20.12
 -12  -8   7    8.34   26.99
  12  -8  -7    8.12   51.73
 -12   8   7   30.87   43.78
 -12   8   7   30.96   22.05
  10  -8  -7   32.96   57.68
 -10  -8   7   -3.58   22.05
  10  -8  -7   20.54   40.45
 -10  -8   7   55.37   45.02
 -10  -8   7   35.92   21.80
 -10   8   7   56.15   45.41
 -10   8   7   -1.91   17.81
  -8  -8   7   -4.47   18.81
  -8  -8   7   19.53   40.31
   8  -8  -7  -12.78   31.03
   8  -8  -7   30.67   49.62
  -8  -8   7   24.49   19.72
   8  -8  -7   12.92   24.62
  -8   8   7   -4.93   30.42
   8   8  -7   51.75   18.11
   6  -8  -7   -2.16   37.70
   6  -8  -7  -15.06   26.56
  -6  -8   7    6.37   38.54
   6  -8  -7   -0.69   17.53
  -6  -8   7   -0.57   17.78
  -6   8   7    1.56   28.12
   6   8  -7   25.31   15.42
   4  -8  -7   12.24   20.70
   4  -8  -7  -13.25   34.97
  -4  -8   7   35.81   22.14
  -4  -8   7    5.56   34.23
   4  -8  -7    8.03   32.33
  -4   8   7    3.34   27.19
   4   8  -7   15.31   13.11
  -4   8   7   -5.74   12.96
   2  -8  -7    3.31   18.04
   2  -8  -7   -2.54   24.29
  -2  -8   7   23.69   20.91
   2  -8  -7   -8.16   30.56
  -2  -8   7    1.61   34.13
  -2   8   7   25.96   15.78
  -2   8   7    5.19   28.55
   0  -8  -7    8.79   20.09
   0  -8  -7    0.71   26.03
   0  -8   7   18.36   43.47
   0  -8  -7    3.59   37.89
   0   8   7    0.03   13.67
   0   8   7   19.01   28.06
   2  -8   7   38.47   43.95
   2  -8   7   20.85   21.70
  -2  -8  -7  -19.68   21.89
  -2  -8  -7   13.21   21.76
  -2  -8  -7    1.43   26.34
   2   8   7    4.67   14.42
   2   8   7   18.93   26.79
  -4  -8  -7    9.36   21.90
   4  -8   7    5.16   21.19
  -4  -8  -7   11.14   29.06
  -4  -8  -7   11.72   28.75
   4  -8   7   13.67   40.92
   4   8   7    6.80   15.82
   4   8   7   -7.51   13.48
   4   8   7   17.95   25.84
  -6  -8  -7   62.29   36.34
  -6  -8  -7   19.97   31.80
  -6  -8  -7   63.44   26.06
   6  -8   7   61.02   45.46
   6  -8   7   10.25   23.59
   6   8   7   28.77   18.13
   6   8   7   26.26   19.38
   6   8   7   19.47   27.72
  -6   8  -7   52.17   17.61
   8  -8   7    9.84   41.13
  -8  -8  -7   23.82   31.49
   8  -8   7   14.30   26.81
  -8  -8  -7   16.77   30.72
  -8  -8  -7   19.51   25.09
   8   8   7   11.73   15.40
   8   8   7    0.29   17.34
   8   8   7   22.97   30.25
  -8   8  -7    1.48   12.06
  -8   8  -7   43.84   19.38
 -10  -8  -7    3.88   25.91
  10  -8   7    7.34   26.10
 -10  -8  -7   -0.94   27.79
  10  -8   7   70.01   45.77
 -10  -8  -7   18.30   25.38
  10   8   7   21.98   28.05
  10   8   7   22.07   13.34
  10   8   7   20.30   21.11
 -10   8  -7    3.71   17.03
 -12  -8  -7    7.36   27.65
  12  -8   7   25.76   33.75
 -12  -8  -7   19.66   26.55
 -12  -8  -7   13.73   32.74
  12  -8   7    4.15   47.97
 -12   8  -7    1.43   18.64
  12   8   7    7.65   20.75
  12   8   7    4.43   26.40
  14  -8   7   33.53   29.46
 -14  -8  -7    8.51   37.66
  14  -8   7    1.33   31.87
 -14  -8  -7    1.46   26.55
  14   8   7   -6.62   20.62
  11  -9  -7  134.12   40.31
  11  -9  -7   99.94   50.54
 -11  -9   7   46.65   24.31
  11  -9  -7  283.24   85.52
 -11  -9   7   66.66   32.24
 -11   9   7   -0.30   18.52
 -11   9   7   32.05   27.28
   9  -9  -7  127.04   78.10
   9  -9  -7  243.88   52.98
  -9  -9   7   43.47   29.48
  -9  -9   7  171.50   62.86
  -9  -9   7   98.93   29.38
   9  -9  -7  212.97   66.04
  -9   9   7   89.38   31.73
  -9   9   7  205.12   35.18
  -7  -9   7   76.97   27.61
   7  -9  -7  182.94   76.57
   7  -9  -7  200.97   50.84
   7  -9  -7  159.84   59.67
  -7  -9   7  148.39   55.37
  -7   9   7   99.44   31.63
  -5  -9   7   86.73   27.34
  -5  -9   7  133.30   58.01
   5  -9  -7  105.08   66.29
   5  -9  -7  131.14   52.49
  -5   9   7  150.52   30.23
  -5   9   7   97.57   31.13
   3  -9  -7  165.73   59.91
  -3  -9   7  114.94   53.34
  -3  -9   7  137.54   33.41
   3  -9  -7  157.92   43.25
   3  -9  -7  256.28   85.58
  -3   9   7  147.93   35.79
  -1  -9   7  154.67   34.95
   1  -9  -7  197.30   72.21
   1  -9  -7  229.41   51.26
  -1  -9   7  137.89   56.45
   1  -9  -7  122.28   57.00
  -1   9   7  162.72   37.82
   1  -9   7  112.54   33.38
  -1  -9  -7   82.84   51.95
  -1  -9  -7  169.32   45.65
  -1  -9  -7  129.78   59.03
   1  -9   7  159.30   54.14
   1   9   7  170.09   35.58
   1   9   7  166.41   32.21
  -3  -9  -7  128.94   54.72
  -3  -9  -7  228.75   74.18
   3  -9   7  140.32   36.81
  -3  -9  -7  267.72   48.81
   3  -9   7  167.67   57.36
   3   9   7  170.55   38.77
   3   9   7  190.35   36.08
   5  -9   7  220.20   61.12
  -5  -9  -7  150.82   63.81
   5  -9   7  131.11   37.76
  -5  -9  -7  119.46   54.78
  -5  -9  -7  302.31   52.02
   5   9   7  185.63   37.24
   5   9   7  217.95   41.07
  -7  -9  -7  118.62   55.52
   7  -9   7   94.89   34.79
  -7  -9  -7  162.80   45.19
  -7  -9  -7   94.35   48.78
   7  -9   7  133.04   50.46
   7   9   7  122.22   29.41
  -9  -9  -7  167.21   40.49
  -9  -9  -7  123.42   51.54
   9  -9   7  115.78   35.83
   9  -9   7  138.12   54.03
  -9  -9  -7   27.93   36.00
   9   9   7  100.13   28.85
  11  -9   7   73.97   35.80
 -11  -9  -7   52.35   44.29
 -11  -9  -7    0.78   30.02
  11  -9   7  117.11   50.30
  11   9   7   93.77   26.20
   4 -10  -7   11.42   35.35
   4 -10  -7    9.84   23.42
  -4 -10   7   27.85   20.43
  -4 -10   7   33.68   43.80
   4 -10  -7   27.89   48.17
   2 -10  -7   15.76   25.07
  -2 -10   7   24.37   21.35
  -2 -10   7   14.81   41.46
   2 -10  -7   25.70   36.63
   2 -10  -7  -22.70   33.88
  -2  10   7    9.40   19.58
   0 -10   7   44.65   23.27
   0 -10  -7   -9.13   26.19
   0 -10  -7   15.32   25.80
   0 -10   7    5.69   43.02
   0 -10  -7  -11.98   28.34
   0  10   7   11.34   19.31
  -2 -10  -7    8.97   25.67
  -2 -10  -7   71.98   50.45
   2 -10   7   32.42   25.33
   2 -10   7  -15.90   37.01
  -2 -10  -7   23.96   31.90
   4 -10   7    0.97   38.47
  -4 -10  -7    6.93   29.01
  -4 -10  -7   68.30   31.02
  -4 -10  -7   25.79   36.02
   4 -10   7   11.47   22.58
  22   0  -8   50.51   50.66
  22   0  -8   50.26   52.34
 -22   0   8   34.10   28.95
  20   0  -8  141.99   61.63
  20   0  -8   43.38   48.06
 -18   0   8  171.06   43.27
  18   0  -8  179.73   68.36
  18   0  -8  174.62   64.46
  16   0  -8  325.84   81.20
  16   0  -8  209.04   74.25
 -16   0   8  217.56   49.89
 -14   0   8  264.58   79.63
 -14   0   8  299.97   53.36
  14   0  -8  280.42   82.44
  14   0  -8  321.81   88.88
 -12   0   8  276.38   52.79
  12   0  -8  297.86   82.50
  12   0  -8  336.91   54.07
 -12   0   8  261.85   82.66
  12   0  -8  370.43   90.20
 -10   0   8  362.32   60.93
  10   0  -8  388.86   95.29
  10   0  -8  395.08   62.36
  10   0  -8  315.91   83.78
   8   0  -8  546.19  104.77
  -8   0   8  610.44   86.20
   8   0  -8  664.09  112.56
  -8   0   8  482.40   98.59
   8   0  -8  525.82   86.37
   6   0  -8  565.03  102.80
   6   0  -8  447.59   75.42
  -6   0   8  297.99   95.42
  -6   0   8  528.26   77.02
   6   0  -8  685.53  103.61
  -6   0   8  506.93   92.65
   4   0  -8  301.29   54.40
  -4   0   8  400.18   58.62
  -4   0   8  397.33   69.55
   4   0  -8  210.85   74.96
   4   0  -8  398.04   87.19
  -4   0   8  174.15   69.94
   4   0  -8  350.85   56.17
  -2   0   8  434.05   71.87
  -2   0   8  184.97   71.94
   2   0  -8  331.37   81.50
  -2   0   8  361.43   58.38
   2   0  -8  237.09   75.75
   2   0  -8  346.90   58.74
   2   0  -8  381.36   58.01
   0   0  -8  410.36   69.51
   0   0  -8  280.25   87.73
   0   0   8  459.10   73.13
   0   0  -8  476.17   71.08
   0   0  -8  535.20  107.78
   0   0   8  572.74   89.70
   2   0   8  522.00   75.36
  -2   0  -8  474.71   73.21
   2   0   8  609.34   88.88
  -2   0  -8  440.06   72.00
  -2   0  -8  351.31   90.37
  -2   0  -8  278.35   91.96
  -4   0  -8  417.73  100.19
   4   0   8  550.08   81.75
  -4   0  -8  324.02   95.57
   4   0   8  688.17   96.89
  -4   0  -8  505.44   80.70
  -4   0  -8  513.18   78.77
   6   0   8  688.34  103.27
  -6   0  -8  534.11   82.88
   6   0   8  426.81   82.72
  -6   0  -8  598.42   84.09
  -6   0  -8  401.93  100.29
  -8   0  -8  420.61   63.95
   8   0   8  326.41   63.81
  -8   0  -8  367.06   62.92
   8   0   8  586.16   83.06
   8   0   8  330.46   65.74
  -8   0  -8  177.87   69.08
 -10   0  -8  288.78   81.84
  10   0   8  371.31   73.18
  10   0   8  435.83   72.94
 -10   0  -8  444.35   70.54
  12   0   8  231.73   58.04
  12   0   8  246.83   63.34
 -12   0  -8  291.48   66.86
 -12   0  -8  209.48   70.81
  14   0   8  217.59   54.32
 -14   0  -8  141.84   55.03
  14   0   8  266.74   60.04
  16   0   8  159.05   49.67
 -16   0  -8   56.03   37.11
  16   0   8  153.54   49.35
 -16   0  -8  241.65   66.83
 -18   0  -8   10.76   32.28
  18   0   8   75.06   39.07
 -18   0  -8  121.21   50.02
  18   0   8   95.57   43.85
  20   0   8   27.17   36.10
 -20   0  -8   79.04   46.74
  20   0   8   10.49   34.46
  22   0   8   40.47   41.84
 -22   0  -8   42.65   51.82
  22   0   8   78.25   45.14
  23  -1  -8   30.06   50.94
 -23  -1   8    5.24   24.82
  23  -1  -8   -3.08   41.71
  23   1  -8   22.45   47.70
 -23   1   8  -10.04   22.21
  23   1  -8    9.05   43.95
  21  -1  -8  -13.85   38.57
  21  -1  -8   23.84   47.85
  21   1  -8    2.38   42.48
  21   1  -8   12.80   42.87
 -21   1   8   13.16   24.76
  19  -1  -8   14.68   41.32
  19  -1  -8   90.91   55.44
  19   1  -8   33.03   44.98
  19   1  -8   59.89   49.78
  17  -1  -8   71.09   49.15
 -17  -1   8   39.36   25.65
  17  -1  -8   89.01   55.98
  17   1  -8   22.66   41.92
  17   1  -8   73.68   47.68
 -17   1   8   34.00   23.60
 -15  -1   8   35.46   36.54
  15  -1  -8   93.05   50.49
 -15  -1   8   25.72   22.25
  15  -1  -8   74.24   52.01
  15   1  -8   73.60   44.32
  15   1  -8  128.81   56.90
  13  -1  -8   30.25   34.18
 -13  -1   8   10.64   33.58
 -13  -1   8   40.28   23.18
  13  -1  -8   93.85   51.59
 -13   1   8   15.99   19.48
 -13   1   8   14.55   30.70
  13   1  -8  112.02   49.78
  13   1  -8  109.24   49.93
  13   1  -8   27.79   22.37
  11  -1  -8  124.87   58.06
 -11  -1   8   92.04   46.88
 -11  -1   8   61.41   27.13
  11  -1  -8   94.14   53.85
  11   1  -8   81.55   29.36
 -11   1   8   73.48   42.49
  11   1  -8   57.16   41.77
 -11   1   8   66.38   26.95
  11   1  -8  142.45   57.67
   9  -1  -8  101.74   54.08
   9  -1  -8   63.63   25.09
  -9  -1   8   80.14   40.90
  -9  -1   8   34.13   23.58
   9  -1  -8  110.47   56.74
  -9  -1   8   91.22   46.09
   9   1  -8  122.36   54.04
   9   1  -8   93.82   46.72
   9   1  -8  113.56   31.76
  -9   1   8  117.10   53.30
  -9   1   8   52.53   24.07
  -7  -1   8   95.63   47.64
   7  -1  -8  144.22   59.44
  -7  -1   8  159.24   53.12
  -7  -1   8  100.32   33.53
   7  -1  -8  155.31   61.57
  -7   1   8  145.19   54.03
   7   1  -8  180.89   38.08
   7   1  -8  126.33   53.07
  -7   1   8   88.96   30.85
  -7   1   8   66.07   43.29
   7   1  -8  148.56   58.18
   5  -1  -8   77.10   49.62
   5  -1  -8   44.08   25.95
  -5  -1   8   95.90   45.40
   5  -1  -8   68.29   26.38
   5  -1  -8    5.44   30.30
  -5  -1   8   91.77   30.41
  -5  -1   8  143.92   49.36
   5   1  -8   49.56   35.01
  -5   1   8  115.62   45.69
   5   1  -8   75.69   25.85
   5   1  -8   87.81   48.74
   5   1  -8   93.10   29.08
  -5   1   8   56.33   24.85
  -5   1   8   41.30   39.93
   3  -1  -8   30.62   36.80
  -3  -1   8   42.16   24.17
  -3  -1   8   44.07   37.22
   3  -1  -8   12.04   19.64
   3  -1  -8   -3.87   30.51
  -3  -1   8   26.14   37.66
   3  -1  -8    1.78   15.42
  -3   1   8   -5.95   24.29
   3   1  -8   45.44   20.12
  -3   1   8   32.00   23.07
   3   1  -8   47.83   23.25
   3   1  -8   72.81   43.11
   3   1  -8   92.32   44.55
  -3   1   8   29.43   33.32
   1  -1  -8   77.46   47.74
  -1  -1   8   88.23   30.80
   1  -1  -8   83.22   30.49
  -1  -1   8   71.09   37.40
  -1  -1   8   54.50   36.96
   1  -1  -8  144.36   57.46
   1  -1  -8   64.45   26.02
  -1   1   8  102.82   30.60
   1   1  -8  154.07   36.96
  -1   1   8  118.61   48.66
  -1   1   8   71.17   41.00
   1   1  -8  131.47   46.88
   1   1  -8   70.17   42.22
   1   1  -8   73.64   26.91
  -1  -1  -8   11.75   30.98
  -1  -1  -8   46.23   23.92
   1  -1   8   55.92   27.22
  -1  -1  -8   59.38   27.89
   1  -1   8   46.05   41.36
  -1  -1  -8   26.88   30.46
  -1   1  -8   69.88   27.44
  -1   1  -8   58.74   23.85
  -1   1  -8   33.61   35.98
  -1   1  -8   51.85   38.03
   1   1   8   75.20   38.78
   1   1   8   50.90   26.58
   3  -1   8   65.32   29.28
  -3  -1  -8   72.08   26.17
  -3  -1  -8   45.71   25.09
  -3  -1  -8   42.21   38.58
   3  -1   8   41.14   40.73
  -3  -1  -8   53.27   38.39
  -3   1  -8   80.98   28.83
   3   1   8   70.23   28.50
  -3   1  -8   88.89   43.66
   3   1   8   44.88   39.34
  -3   1  -8   80.20   26.41
  -3   1  -8   81.30   44.56
  -5  -1  -8  122.03   53.32
  -5  -1  -8   76.78   46.88
   5  -1   8  172.12   62.12
   5  -1   8  153.96   41.43
  -5  -1  -8  174.40   44.16
  -5  -1  -8  152.66   41.29
  -5   1  -8  182.22   34.20
   5   1   8   93.12   43.45
  -5   1  -8   91.09   48.01
   5   1   8  113.38   37.06
  -5   1  -8  153.18   55.17
  -5   1  -8  155.51   38.81
  -7  -1  -8  122.41   36.30
  -7  -1  -8   50.94   22.65
   7  -1   8   71.23   48.78
  -7  -1  -8   29.37   31.20
   7  -1   8   35.87   26.12
  -7  -1  -8   27.56   31.69
   7   1   8   23.99   41.32
  -7   1  -8   77.83   32.36
  -7   1  -8   10.02   31.47
  -7   1  -8    0.47   24.40
   7   1   8   34.68   25.55
  -9  -1  -8   -0.56   22.36
   9  -1   8   48.45   29.01
   9  -1   8    0.18   23.72
  -9  -1  -8  -17.82   21.33
  -9  -1  -8    4.93   17.70
  -9  -1  -8   27.46   25.76
   9  -1   8   35.54   38.46
  -9   1  -8   -3.86   23.30
   9   1   8    5.90   12.43
   9   1   8   11.46   25.50
  -9   1  -8    5.42   30.31
  -9   1  -8   44.06   29.64
   9   1   8  -13.63   18.01
 -11  -1  -8   25.09   36.16
  11  -1   8   25.20   28.89
  11  -1   8   23.41   25.38
 -11  -1  -8   10.96   29.97
  11   1   8   12.81   25.50
 -11   1  -8   41.89   32.80
  11   1   8   12.93   15.48
 -11   1  -8   16.40   31.85
 -11   1  -8   13.32   28.41
  11   1   8   16.02   26.58
 -13  -1  -8   63.71   39.76
  13  -1   8  122.19   42.57
  13  -1   8   44.70   32.50
 -13  -1  -8   31.10   32.66
  13   1   8   57.85   34.30
 -13   1  -8  102.02   45.75
 -13   1  -8  142.48   44.23
  13   1   8   83.46   20.88
 -13   1  -8   31.16   36.93
  13   1   8   56.99   32.71
 -15  -1  -8   54.01   42.63
 -15  -1  -8    7.69   25.33
  15  -1   8   35.01   32.12
  15  -1   8   16.99   33.36
 -15   1  -8    0.38   25.69
  15   1   8    7.52   28.07
  15   1   8   64.64   17.44
  15   1   8   54.47   38.22
 -15   1  -8   42.58   41.32
  17  -1   8   -5.75   30.28
 -17  -1  -8  -13.49   19.29
 -17  -1  -8   19.01   35.08
  17  -1   8   12.84   30.09
 -17   1  -8   14.27   36.08
  17   1   8    3.31   12.15
  17   1   8   -3.97   27.99
  17   1   8   -9.73   26.47
 -17   1  -8  -11.62   24.78
  19  -1   8    0.37   31.29
 -19  -1  -8   42.52   44.90
  19  -1   8  -17.76   27.30
  19   1   8  -19.24   28.12
 -19   1  -8  -22.60   27.49
  19   1   8    7.08   33.43
  19   1   8   -1.67    7.75
  21  -1   8   11.29   35.05
  21  -1   8   22.08   37.18
 -21  -1  -8    5.92   34.65
  21   1   8   -6.39   33.48
 -21   1  -8   -1.64   35.99
  21   1   8   14.52   35.79
  21   1   8   -0.65    4.06
 -22  -2   8   43.61   28.43
  22  -2  -8   76.79   60.96
 -22   2   8   37.32   30.56
  22   2  -8   27.18   45.99
  22   2  -8   33.07   48.36
  20  -2  -8  116.41   60.27
  20  -2  -8  135.94   67.89
 -20   2   8   98.32   36.52
  20   2  -8   88.39   52.11
  20   2  -8  130.02   56.18
  18  -2  -8  191.78   73.80
  18  -2  -8  142.11   64.37
 -18  -2   8  177.20   42.72
  18   2  -8  132.08   57.06
  18   2  -8  178.23   64.70
  16  -2  -8  256.58   77.76
 -16  -2   8   92.71   47.87
  16  -2  -8  255.89   82.30
 -16  -2   8  213.58   43.26
  16   2  -8   97.44   53.50
  16   2  -8  266.20   67.63
 -16   2   8  191.56   43.18
 -14  -2   8  136.12   57.06
  14  -2  -8  251.26   80.04
  14  -2  -8  197.48   74.70
 -14  -2   8  191.56   43.21
  14   2  -8  293.99   70.55
  14   2  -8  328.38   78.07
 -14   2   8  259.64   46.05
  12  -2  -8  321.36   88.42
  12  -2  -8  247.90   82.35
 -12  -2   8  222.96   47.56
  12   2  -8  338.07   50.11
  12   2  -8  369.86   80.17
 -12   2   8  206.87   46.41
  12   2  -8  128.68   54.58
 -10  -2   8  376.82  113.73
  10  -2  -8  407.48  102.75
 -10  -2   8  250.61   82.32
  10  -2  -8  569.36  116.73
 -10  -2   8  379.35   63.30
 -10   2   8  248.60   84.17
  10   2  -8  415.76   63.02
  10   2  -8  471.88   87.50
 -10   2   8  379.56   62.75
  10   2  -8  486.77   84.70
  -8  -2   8  674.02  104.76
  -8  -2   8  651.30   89.27
   8  -2  -8  645.96  118.75
   8  -2  -8  597.56   88.48
   8  -2  -8  752.39  143.64
  -8  -2   8  439.10  100.03
  -8   2   8  588.64   87.26
   8   2  -8  573.46  105.01
   8   2  -8  531.79   86.86
  -8   2   8  514.90  121.74
   6  -2  -8  538.89  111.22
   6  -2  -8  563.13  125.08
   6  -2  -8  546.12   85.11
  -6  -2   8  494.19   94.44
  -6  -2   8  543.68   84.06
   6   2  -8  610.11   99.35
   6   2  -8  573.21  103.20
  -6   2   8  594.79  101.42
  -6   2   8  552.20   83.44
   6   2  -8  554.70   83.09
  -4  -2   8  746.95  107.58
   4  -2  -8  632.07   87.29
   4  -2  -8  638.71  115.58
   4  -2  -8  481.58   86.83
  -4  -2   8  558.43   87.43
   4  -2  -8  437.27  113.38
  -4   2   8  353.93  112.16
   4   2  -8  611.43   87.13
   4   2  -8  606.31  105.36
   4   2  -8  651.86  102.09
  -4   2   8  656.88   88.22
   4   2  -8  533.02   85.74
  -4   2   8  651.69  103.79
   2  -2  -8  716.74  106.70
  -2  -2   8  700.11  121.68
   2  -2  -8  656.82  129.35
   2  -2  -8  694.32  125.79
  -2  -2   8  809.17  107.95
   2   2  -8  834.80  121.83
  -2   2   8  744.26  105.67
   2   2  -8  665.05  121.08
   2   2  -8  687.53  104.40
   2   2  -8  692.85  104.30
  -2   2   8  845.47  122.73
   0  -2   8  818.61  114.06
   0  -2   8  716.08   98.66
   0  -2  -8  624.22   96.49
   0  -2  -8  412.70  118.66
   0  -2  -8  485.10  121.40
   0  -2  -8  607.04   96.46
   0   2  -8  602.52  111.70
   0   2   8  709.88  111.01
   0   2  -8  656.63   95.82
   0   2  -8  679.98   96.37
   0   2   8  694.56   97.85
   0   2  -8  719.76  110.46
  -2  -2  -8  640.51  101.12
  -2  -2  -8  452.23  127.22
  -2  -2  -8  638.68  102.16
  -2  -2  -8  639.85  119.26
   2  -2   8  716.59  102.65
   2  -2   8  947.68  123.02
  -2   2  -8  704.02  100.51
  -2   2  -8  773.94  101.99
  -2   2  -8  687.23  112.71
   2   2   8  874.98  118.08
   2   2   8  656.57  101.21
  -2   2  -8  531.95  114.44
  -4  -2  -8  547.45  112.15
   4  -2   8  791.00  114.45
  -4  -2  -8  777.67  101.09
   4  -2   8  593.41   98.67
  -4  -2  -8  667.76   99.49
  -4   2  -8  666.99   97.48
   4   2   8  625.01   99.03
   4   2   8  801.04  115.47
  -4   2  -8  618.95  110.43
  -4   2  -8  736.50   99.60
  -4   2  -8  464.39  108.05
  -6  -2  -8  656.25   98.52
   6  -2   8  758.64  117.00
  -6  -2  -8  686.95   98.84
  -6  -2  -8  425.90  112.01
   6  -2   8  649.17  100.02
   6   2   8  798.54  114.78
  -6   2  -8  649.40  108.80
   6   2   8  619.49   99.55
  -6   2  -8  661.72   98.03
  -6   2  -8  608.87   95.21
   8  -2   8  476.19   81.68
   8  -2   8  646.97  101.38
  -8  -2  -8  503.13   79.16
   8  -2   8  491.62   81.77
  -8  -2  -8  382.05   96.75
  -8   2  -8  329.74   91.82
   8   2   8  470.50   81.81
  -8   2  -8  545.76   79.74
 -10  -2  -8  322.21   84.24
  10  -2   8  304.62   61.07
  10  -2   8  271.93   62.76
  10   2   8  315.64   64.63
 -10   2  -8  281.17   71.26
  10   2   8  336.66   68.50
 -12  -2  -8  375.51   97.55
  12  -2   8  344.92   71.18
  12  -2   8  349.43   76.56
 -12   2  -8  234.70   72.03
  12   2   8  342.51   79.28
  12   2   8  414.32   56.15
 -12   2  -8  551.53   74.41
  12   2   8  360.24   81.13
 -14  -2  -8   95.52   51.48
  14  -2   8  246.63   55.60
 -14  -2  -8  136.60   49.92
  14  -2   8  243.14   56.66
  14   2   8  230.93   56.46
 -14   2  -8  244.54   63.14
 -14   2  -8  148.80   59.61
  14   2   8  231.88   56.41
 -16  -2  -8   96.84   47.96
  16  -2   8  151.21   48.41
 -16  -2  -8   37.74   36.03
  16  -2   8  137.89   45.79
 -16   2  -8  312.23   90.12
  16   2   8  207.80   57.58
 -16   2  -8  135.59   46.73
  16   2   8  211.47   58.12
  18  -2   8   87.50   41.24
 -18  -2  -8   91.74   43.74
  18  -2   8  137.20   49.16
 -18  -2  -8    5.67   28.93
 -18   2  -8   10.60   35.61
  18   2   8  123.32   45.38
  18   2   8   71.01   38.58
 -18   2  -8   17.57   37.63
  20  -2   8   34.03   39.06
 -20  -2  -8   46.21   46.52
  20  -2   8  132.12   51.20
  20   2   8  142.69   55.36
 -20   2  -8   87.15   46.67
  20   2   8   82.03   42.51
  22  -2   8   39.22   40.68
  22  -2   8   88.64   42.63
 -22  -2  -8   37.35   43.73
 -22   2  -8  -10.00   36.66
  22   2   8   45.87   43.48
  22   2   8   34.48   38.57
  21  -3  -8   -5.00   37.60
  21  -3  -8   20.88   49.42
  21   3  -8   -9.44   38.97
 -21   3   8   22.81   26.08
  21   3  -8   -2.57   39.56
 -19  -3   8    7.46   31.63
  19  -3  -8   21.85   46.21
  19  -3  -8   30.13   47.87
 -19   3   8   -4.57   21.17
  19   3  -8   55.79   46.21
  19   3  -8   12.02   39.84
  17  -3  -8   10.92   45.02
  17  -3  -8   30.16   45.56
 -17  -3   8   43.24   25.53
 -17  -3   8   10.26   35.68
  17   3  -8   28.07   38.57
  17   3  -8   34.72   27.09
  17   3  -8   15.53   38.06
 -15  -3   8   27.14   23.54
  15  -3  -8    9.05   38.00
 -15  -3   8   67.70   38.89
  15  -3  -8    3.26   40.16
 -15   3   8    6.12   18.24
  15   3  -8   76.54   29.97
  15   3  -8   70.10   44.54
  15   3  -8   66.54   41.43
  13  -3  -8   12.21   42.24
 -13  -3   8   -1.24   30.19
 -13  -3   8   31.14   23.12
  13  -3  -8   15.74   41.65
  13   3  -8   24.64   25.40
 -13   3   8    8.50   16.82
  13   3  -8    6.46   31.57
  13   3  -8   -7.79   28.57
  11  -3  -8   45.23   42.99
  11  -3  -8   15.67   40.39
 -11  -3   8   -5.74   30.12
 -11  -3   8   19.85   21.20
  11   3  -8   16.57   30.70
  11   3  -8   15.67   31.85
  11   3  -8   27.07   24.78
 -11   3   8   13.39   17.66
  -9  -3   8   30.04   37.46
   9  -3  -8   48.40   48.17
  -9  -3   8   22.67   20.86
   9  -3  -8   51.60   46.43
  -9  -3   8    6.24   32.31
   9   3  -8   48.94   37.37
  -9   3   8    4.76   16.17
   9   3  -8   14.09   28.53
   9   3  -8   17.34   21.35
  -7  -3   8  141.38   52.23
  -7  -3   8   25.25   35.03
   7  -3  -8   89.85   51.09
   7  -3  -8   37.58   43.20
  -7  -3   8   63.21   26.02
  -7   3   8    1.76   24.29
  -7   3   8   20.32   18.87
   7   3  -8   63.62   26.87
   7   3  -8   67.51   35.57
   7   3  -8   45.90   37.96
  -7   3   8   15.33   32.33
  -5  -3   8    8.22   27.60
  -5  -3   8   40.90   24.73
   5  -3  -8   33.13   22.94
  -5  -3   8   24.41   36.53
   5  -3  -8   22.28   38.07
   5  -3  -8   13.15   35.70
   5   3  -8   39.77   19.74
  -5   3   8   10.99   30.10
   5   3  -8   58.04   35.92
  -5   3   8   32.16   33.74
   5   3  -8   60.07   37.00
   5   3  -8   33.58   22.17
  -5   3   8   24.92   20.01
   3  -3  -8   25.03   20.12
   3  -3  -8   15.95   33.38
  -3  -3   8   33.83   32.70
   3  -3  -8   16.67   20.32
  -3  -3   8   49.32   24.26
   3  -3  -8   10.72   34.56
  -3  -3   8    4.64   35.55
   3   3  -8   24.12   18.40
   3   3  -8   20.58   28.98
  -3   3   8   38.69   37.03
   3   3  -8   31.35   31.05
  -3   3   8   37.03   21.89
  -3   3   8    8.55   30.50
   3   3  -8   24.39   22.37
  -1  -3   8   78.66   41.46
   1  -3  -8   72.58   50.21
   1  -3  -8   29.22   35.94
   1  -3  -8   65.26   26.13
   1  -3  -8  106.07   32.93
  -1  -3   8   84.33   45.81
  -1  -3   8   65.28   27.85
   1   3  -8  102.54   44.96
   1   3  -8  126.48   41.73
  -1   3   8   92.49   30.63
   1   3  -8  109.51   30.10
  -1   3   8   21.73   33.77
   1   3  -8  123.34   31.46
  -1   3   8  114.10   48.63
   1  -3   8   36.44   25.02
  -1  -3  -8   16.05   18.94
  -1  -3  -8   37.67   37.08
  -1  -3  -8   53.21   25.26
  -1  -3  -8   13.25   30.53
   1  -3   8   32.82   39.33
  -1   3  -8   69.35   26.61
   1   3   8   41.80   25.12
  -1   3  -8   53.09   21.20
   1   3   8   56.70   43.44
  -1   3  -8   89.29   36.13
  -1   3  -8   61.10   38.45
   3  -3   8   35.85   24.09
  -3  -3  -8   -0.89   26.80
  -3  -3  -8   11.66   18.55
   3  -3   8  -10.80   33.40
  -3  -3  -8   14.87   19.05
  -3  -3  -8   -8.56   23.84
  -3   3  -8   49.00   33.43
  -3   3  -8   71.23   27.59
  -3   3  -8   47.75   19.72
  -3   3  -8    6.92   27.67
   3   3   8   37.35   25.53
   3   3   8   46.73   37.99
   5  -3   8  111.06   50.61
  -5  -3  -8   22.87   33.21
   5  -3   8   96.64   31.50
  -5  -3  -8    2.39   26.45
  -5  -3  -8   56.01   25.76
  -5   3  -8   99.05   38.65
   5   3   8   86.66   41.64
   5   3   8   50.45   26.69
  -5   3  -8   50.12   22.24
  -5   3  -8   14.94   29.53
  -5   3  -8   85.74   30.80
  -7  -3  -8    7.15   26.72
   7  -3   8  143.69   54.10
  -7  -3  -8   56.91   25.81
   7  -3   8   49.43   28.56
  -7  -3  -8   30.31   33.57
   7   3   8   45.63   27.55
  -7   3  -8   49.74   34.64
  -7   3  -8   89.05   31.54
  -7   3  -8   13.11   33.78
  -9  -3  -8   22.12   21.55
  -9  -3  -8   -2.15   21.48
   9  -3   8   10.15   24.46
   9  -3   8   30.59   43.19
   9  -3   8   16.46   25.77
  -9  -3  -8   -0.90   24.10
   9   3   8    4.13   24.82
   9   3   8   16.84   23.64
  -9   3  -8   13.33   25.50
  -9   3  -8   21.10   32.41
  -9   3  -8  -17.56   20.38
  11  -3   8   39.28   30.37
 -11  -3  -8   16.62   34.84
 -11  -3  -8    3.99   26.78
  11  -3   8   13.12   25.72
  11   3   8   22.92   26.16
 -11   3  -8   -2.99   25.85
  11   3   8   24.28   15.67
 -11   3  -8   78.76   31.79
  11   3   8   48.64   33.35
 -11   3  -8   40.37   36.26
 -13  -3  -8   14.05   29.94
  13  -3   8   16.63   32.42
 -13  -3  -8    3.76   25.82
  13  -3   8   32.57   31.01
 -13   3  -8  123.84   41.55
  13   3   8   33.26   30.35
 -13   3  -8   -7.40   28.40
 -13   3  -8   15.13   35.26
  13   3   8   24.04   32.50
  13   3   8   38.58   16.36
 -15  -3  -8   39.98   40.16
  15  -3   8   17.25   34.18
 -15  -3  -8    3.69   27.00
  15  -3   8   23.09   30.25
  15   3   8   14.48   29.32
 -15   3  -8   26.55   34.84
 -15   3  -8  -14.22   24.15
  15   3   8   32.18   34.52
 -15   3  -8   98.79   41.49
  15   3   8   45.16   15.01
 -17  -3  -8   -6.14   27.09
  17  -3   8   14.42   36.71
  17  -3   8   -1.01   29.01
 -17  -3  -8   10.58   35.70
 -17   3  -8  -28.74   17.62
 -17   3  -8   -3.55   31.87
  17   3   8   -7.55    3.49
  17   3   8   11.72   32.27
 -17   3  -8   31.94   33.32
  17   3   8   25.75   33.35
  19  -3   8   -6.38   31.69
  19  -3   8    7.77   37.61
 -19  -3  -8    1.03   29.92
 -19  -3  -8   18.55   39.76
  19   3   8   23.38   36.49
 -19   3  -8   -7.83   29.38
 -19   3  -8   30.98   38.27
  19   3   8   -0.54   30.54
  21  -3   8   34.95   37.27
 -21  -3  -8   13.54   36.26
  21  -3   8   25.07   42.12
  21   3   8   -7.84   30.91
 -21   3  -8   29.51   43.38
  21   3   8    6.88   35.17
  20  -4  -8  131.23   66.88
  20  -4  -8  140.27   69.13
 -20  -4   8   14.48   33.77
 -20   4   8   60.67   30.43
  20   4  -8   77.85   39.46
  20   4  -8   66.20   50.80
 -18  -4   8   12.80   40.41
  18  -4  -8  138.50   65.90
 -18  -4   8   79.25   33.12
  18  -4  -8  166.48   67.32
  18   4  -8  149.61   39.52
 -18   4   8  121.65   37.59
  18   4  -8   98.78   48.69
  18   4  -8   88.91   44.38
 -16  -4   8  154.87   39.12
  16  -4  -8  141.02   67.36
 -16  -4   8   49.59   46.90
  16  -4  -8  143.85   67.34
  16   4  -8  174.64   38.93
  16   4  -8  182.26   51.30
  16   4  -8  164.76   57.28
  14  -4  -8  209.51   79.79
  14  -4  -8  153.99   66.57
 -14  -4   8  144.75   38.83
  14   4  -8  211.42   54.37
  14   4  -8  167.34   56.94
  14   4  -8  182.57   40.32
 -14   4   8  148.97   40.36
  12  -4  -8  214.78   74.02
  12  -4  -8  135.13   65.43
 -12  -4   8  137.90   36.07
  12   4  -8  187.41   46.11
  12   4  -8  165.98   51.39
 -12   4   8  147.58   35.51
  12   4  -8  107.80   35.64
 -10  -4   8  127.41   59.21
 -10  -4   8  231.30   51.06
  10  -4  -8  346.64   99.25
  10  -4  -8  239.75   82.20
 -10  -4   8  204.89   93.88
 -10   4   8  260.87   48.43
  10   4  -8  273.25   60.37
  10   4  -8  383.17   71.76
  10   4  -8  374.57   49.38
  -8  -4   8  268.33   83.80
   8  -4  -8  319.19   90.87
  -8  -4   8  384.61   87.30
  -8  -4   8  316.86   57.47
   8  -4  -8  391.63  105.96
   8   4  -8  338.15   77.96
   8   4  -8  418.87   63.12
   8   4  -8  355.28   55.20
  -8   4   8  239.17   52.10
  -6  -4   8  177.33   59.14
   6  -4  -8  124.54   66.71
   6  -4  -8  196.49   71.62
  -6  -4   8  259.85   50.92
   6  -4  -8  236.14   48.25
   6   4  -8  242.36   62.75
   6   4  -8  261.78   45.15
  -6   4   8  244.84   51.11
  -6   4   8  217.07   68.34
   6   4  -8  291.58   50.76
   4  -4  -8  308.26   58.82
  -4  -4   8  240.83   72.96
  -4  -4   8  230.12   56.59
   4  -4  -8  392.83   96.06
   4  -4  -8  428.35  107.80
   4   4  -8  334.90   53.51
   4   4  -8  320.10   53.78
   4   4  -8  394.49   73.44
  -4   4   8  431.39   94.83
   4   4  -8  383.63   59.15
  -4   4   8  319.53   54.83
  -2  -4   8  588.64   94.48
   2  -4  -8  473.68  108.96
   2  -4  -8  365.27  104.91
  -2  -4   8  405.50   72.05
   2  -4  -8  428.96   72.48
   2   4  -8  530.54   69.00
   2   4  -8  455.89   72.82
   2   4  -8  384.67   68.31
  -2   4   8  447.71   70.65
   2   4  -8  424.81   85.72
  -2   4   8  531.24  109.14
   0  -4  -8  274.32   57.50
   0  -4   8  353.20   59.39
   0  -4   8  556.61   86.54
   0  -4  -8  265.05   81.93
   0  -4  -8  295.56   83.36
   0   4  -8  378.39   57.08
   0   4   8  464.85   93.17
   0   4  -8  270.29   61.29
   0   4  -8  257.16   71.76
   0   4  -8  385.65   55.58
   0   4   8  347.35   58.69
   2  -4   8  488.55   77.99
  -2  -4  -8  247.19   81.26
  -2  -4  -8  167.51   68.84
   2  -4   8  235.74   53.71
  -2  -4  -8  279.96   52.83
  -2   4  -8  217.98   52.95
  -2   4  -8  173.10   56.64
  -2   4  -8  307.75   50.15
   2   4   8  453.73   73.53
  -2   4  -8  355.94   50.15
   2   4   8  282.67   57.96
  -4  -4  -8  163.44   68.58
  -4  -4  -8  243.87   51.16
   4  -4   8  256.02   53.46
   4  -4   8  376.37   86.88
  -4  -4  -8  280.00   78.17
   4   4   8  291.21   57.41
  -4   4  -8  305.16   54.25
  -4   4  -8  198.22   62.88
   4   4   8  442.52   89.82
  -6  -4  -8  127.28   59.29
  -6  -4  -8  274.33   74.71
  -6  -4  -8  317.24   55.59
   6  -4   8  424.16   90.43
   6  -4   8  242.40   53.87
  -6   4  -8  169.75   63.39
  -6   4  -8  402.41   52.35
   6   4   8  253.97   56.96
   6   4   8  603.63  151.11
  -6   4  -8  258.19   59.01
  -8  -4  -8  293.46   79.06
  -8  -4  -8  118.28   54.97
   8  -4   8  458.91   92.46
   8  -4   8  192.54   49.00
  -8   4  -8  140.52   53.61
   8   4   8  227.18   51.13
  -8   4  -8  204.02   48.72
 -10  -4  -8  170.75   65.02
 -10  -4  -8  307.97   79.66
  10  -4   8  113.70   43.33
  10  -4   8  202.64   48.06
  10  -4   8  193.74   84.12
  10   4   8  217.66   55.11
 -10   4  -8  142.91   44.47
 -10   4  -8  191.22   44.56
  10   4   8  184.50   55.09
  12  -4   8  206.23   51.71
  12  -4   8  141.13   46.81
 -12  -4  -8  110.79   52.92
  12   4   8  151.55   49.19
  12   4   8  181.02   56.60
 -12   4  -8  174.07   45.74
  12   4   8  232.92   33.40
 -12   4  -8  295.74   57.23
 -14  -4  -8   65.48   43.93
 -14  -4  -8  139.24   53.81
  14  -4   8  105.89   42.99
  14  -4   8  144.79   44.60
 -14   4  -8  115.97   43.24
  14   4   8  172.89   51.45
  14   4   8  158.56   49.53
 -14   4  -8  220.32   48.87
 -16  -4  -8   48.33   36.52
  16  -4   8   89.34   38.29
  16  -4   8  119.05   45.89
 -16  -4  -8   40.67   41.52
 -16   4  -8   -2.37   31.64
  16   4   8  113.40   44.73
  16   4   8  123.23   44.00
 -16   4  -8  163.31   47.48
 -16   4  -8   40.94   36.54
  18  -4   8  106.21   41.86
 -18  -4  -8   71.46   51.38
  18  -4   8   73.97   43.96
  18   4   8  106.68   44.92
 -18   4  -8   33.94   40.43
  18   4   8   99.38   45.57
 -18   4  -8   37.12   44.65
 -18   4  -8  144.40   49.38
  20  -4   8  109.40   48.86
  20  -4   8   27.56   36.27
 -20  -4  -8   16.95   36.61
 -20  -4  -8   -1.24   29.84
  20   4   8   45.94   41.00
 -20   4  -8   71.14   37.54
 -20   4  -8   25.11   36.01
 -20   4  -8  -20.75   26.27
  20   4   8   32.61   40.35
 -19  -5   8    6.15   34.03
  19  -5  -8   40.88   50.23
  19  -5  -8   52.43   54.75
 -19   5   8   15.21   24.10
  19   5  -8   82.79   41.76
  19   5  -8   -3.51   13.93
  19   5  -8   27.11   32.73
  17  -5  -8   64.28   59.57
 -17  -5   8   13.57   37.04
 -17  -5   8    4.40   23.47
  17  -5  -8   13.90   46.42
  17   5  -8   34.73   40.61
 -17   5   8   21.53   24.12
  17   5  -8   72.25   32.70
  15  -5  -8   48.73   47.87
  15  -5  -8   37.89   50.29
 -15  -5   8    0.88   21.85
 -15  -5   8   15.30   34.76
  15   5  -8   64.95   40.15
  15   5  -8   17.04   27.18
  15   5  -8   16.33   19.42
  13  -5  -8   56.52   56.86
 -13  -5   8   82.51   43.44
  13  -5  -8   59.86   51.90
 -13  -5   8    1.93   20.71
  13   5  -8   84.89   41.68
 -13   5   8   25.14   20.41
  13   5  -8   68.02   24.84
  13   5  -8   29.43   25.98
  11  -5  -8   33.78   46.49
 -11  -5   8   53.18   25.94
  11  -5  -8   79.81   56.69
 -11  -5   8   -5.43   29.06
  11   5  -8   51.12   22.36
  11   5  -8   36.45   22.64
 -11   5   8    9.76   18.42
  11   5  -8  104.49   44.28
   9  -5  -8   49.34   49.11
  -9  -5   8   14.92   34.13
   9  -5  -8   83.75   52.50
  -9  -5   8   37.14   25.53
  -9  -5   8   44.69   37.04
   9   5  -8   68.04   22.36
  -9   5   8   29.09   20.33
   9   5  -8   67.79   19.62
   9   5  -8   47.21   36.25
   7  -5  -8   41.07   42.79
  -7  -5   8   16.97   41.44
   7  -5  -8   12.74   38.89
  -7  -5   8   11.18   27.46
   7  -5  -8   22.91   23.21
  -7  -5   8   45.62   25.31
  -7   5   8   30.32   19.75
   7   5  -8   60.49   18.16
   7   5  -8   63.74   19.02
   7   5  -8   29.93   33.14
   5  -5  -8   34.35   37.27
   5  -5  -8   31.41   39.88
   5  -5  -8   25.73   25.00
  -5  -5   8   44.42   32.53
  -5  -5   8   49.34   47.63
  -5  -5   8   59.08   27.37
  -5   5   8   41.29   40.06
   5   5  -8   64.49   35.04
  -5   5   8   16.85   18.96
   3  -5  -8   94.11   50.82
  -3  -5   8   20.61   31.16
  -3  -5   8   59.49   44.63
   3  -5  -8   21.04   21.51
  -3  -5   8   40.59   24.25
   3  -5  -8   31.28   39.63
  -3   5   8   40.08   40.41
  -3   5   8   39.85   21.78
   3   5  -8   49.07   21.41
   3   5  -8   69.94   37.59
   1  -5  -8   -8.83   28.50
  -1  -5   8   93.16   52.88
  -1  -5   8   34.86   25.43
   1  -5  -8   20.79   21.70
   1  -5  -8   58.02   45.74
  -1   5   8   32.20   39.51
   1   5  -8   86.92   38.25
   1   5  -8   94.45   24.57
  -1   5   8   26.88   20.93
   1  -5   8   52.38   26.21
   1  -5   8   95.43   50.40
  -1  -5  -8   38.10   40.36
  -1  -5  -8   34.53   37.55
  -1  -5  -8   40.81   24.50
   1   5   8   47.55   23.87
  -1   5  -8   68.82   36.15
  -1   5  -8   78.13   23.69
   1   5   8   26.33   39.60
  -3  -5  -8   -2.67   24.59
  -3  -5  -8    9.39   18.29
   3  -5   8   52.90   50.24
  -3  -5  -8   18.65   30.31
   3  -5   8   17.40   21.92
  -3   5  -8   70.93   20.90
  -3   5  -8   30.82   32.84
   3   5   8    9.86   32.16
   3   5   8    2.13   16.87
  -5  -5  -8   10.03   29.33
  -5  -5  -8   19.54   30.22
   5  -5   8   35.83   25.99
  -5  -5  -8   30.02   22.90
   5  -5   8   38.00   51.96
   5   5   8   37.89   43.95
  -5   5  -8  -15.72   27.20
   5   5   8   25.91   22.86
  -7  -5  -8  -17.24   20.23
  -7  -5  -8   19.17   31.36
  -7  -5  -8   36.55   25.99
   7  -5   8   34.85   26.95
   7  -5   8   11.21   47.94
   7   5   8    6.50   22.12
  -7   5  -8   14.27   33.78
  -9  -5  -8   -1.59   17.03
  -9  -5  -8   15.14   30.44
   9  -5   8   35.06   29.47
  -9  -5  -8   34.23   35.04
   9  -5   8   66.17   47.69
  -9   5  -8   23.93   34.84
   9   5   8   30.68   27.18
  11  -5   8    0.38   26.36
 -11  -5  -8   -8.77   28.87
  11  -5   8   23.28   27.67
 -11  -5  -8   22.27   29.66
 -11   5  -8   25.64   19.97
 -11   5  -8   18.38   21.08
  11   5   8    8.23   25.27
 -11   5  -8   17.52   32.45
 -13  -5  -8  -13.63   24.66
 -13  -5  -8    9.37   27.02
  13  -5   8   12.74   31.27
  13  -5   8   23.94   27.84
  13   5   8    9.91    8.92
 -13   5  -8  -25.90   13.16
  13   5   8    5.40   26.66
 -13   5  -8    0.86   23.19
 -13   5  -8    4.93   29.51
  13   5   8  -12.42   22.71
 -15  -5  -8   -4.33   28.56
  15  -5   8   17.14   30.29
  15  -5   8    0.17   31.76
 -15  -5  -8   -6.18   22.80
 -15   5  -8   16.98   23.64
  15   5   8   18.94   31.83
  15   5   8   20.61   29.36
 -15   5  -8   -8.44   14.60
 -15   5  -8   11.68   31.60
 -17  -5  -8    3.42   24.28
  17  -5   8   -6.51   28.52
 -17  -5  -8  -13.97   27.89
  17  -5   8  -22.81   33.54
  17   5   8   18.05   31.15
 -17   5  -8   -0.61   20.10
 -17   5  -8    5.46   25.14
  17   5   8   -3.96   29.89
 -17   5  -8   12.57   32.96
 -19  -5  -8  -10.25   30.42
  19  -5   8  -22.69   32.75
  19  -5   8   11.18   30.65
 -19   5  -8   -1.57   22.01
  19   5   8    8.27   31.24
 -19   5  -8  -11.73   20.38
  19   5   8   61.72   35.70
 -18   6   8   56.52   29.30
  18   6  -8    3.71    8.56
  18   6  -8   -1.66    8.54
  18   6  -8    0.05   10.96
 -16  -6   8   67.77   43.79
  16  -6  -8  210.78   78.01
  16  -6  -8  184.30   74.74
 -16  -6   8   98.00   34.40
 -16   6   8  150.73   40.61
 -14  -6   8   87.72   50.05
  14  -6  -8  118.13   59.95
  14  -6  -8  200.39   77.44
 -14  -6   8  111.23   33.50
  12  -6  -8  217.33   75.52
 -12  -6   8  152.02   38.08
 -12  -6   8  108.33   50.34
  12  -6  -8  293.84   98.94
  10  -6  -8  178.18   83.69
 -10  -6   8  249.50   46.78
  10  -6  -8  301.34   89.82
 -10   6   8  239.45   46.00
  -8  -6   8   93.88   50.34
  -8  -6   8  196.44   42.65
   8  -6  -8  241.07   81.44
   8  -6  -8  237.99   54.01
   8  -6  -8  178.01   69.98
  -8  -6   8  262.61   77.49
   8   6  -8  335.26   60.46
  -8   6   8  171.50   39.98
   6  -6  -8  219.80   55.88
  -6  -6   8  253.44   72.87
  -6  -6   8  195.03   45.84
   6  -6  -8  232.42   80.07
   6  -6  -8  261.62   85.44
  -6   6   8  380.21  114.35
   6   6  -8  195.04   50.59
  -6   6   8  275.03   50.26
   4  -6  -8  295.94   91.87
  -4  -6   8  203.15   50.43
   4  -6  -8  264.05   55.18
  -4  -6   8  334.48   86.24
   4  -6  -8  232.83   78.44
   4   6  -8  312.59   67.98
  -4   6   8  312.20   50.19
  -4   6   8  490.01  103.39
   2  -6  -8  409.28  109.83
   2  -6  -8  213.22   83.26
  -2  -6   8  418.65   97.04
  -2  -6   8  381.50   65.95
   2  -6  -8  336.66   67.39
  -2   6   8  497.80   85.53
   2   6  -8  499.10   64.32
   2   6  -8  444.99   75.45
  -2   6   8  348.35   62.75
   0  -6   8  484.44  103.10
   0  -6  -8  187.83   80.96
   0  -6  -8  316.78   62.89
   0  -6   8  347.61   62.69
   0  -6  -8  376.26   99.11
   0   6  -8  450.38   58.88
   0   6   8  510.49  105.07
   0   6  -8  339.16   69.44
   0   6   8  354.79   60.40
  -2  -6  -8  262.98   49.79
  -2  -6  -8  138.05   59.94
   2  -6   8  152.82   43.99
   2  -6   8  365.51   87.76
  -2  -6  -8  253.84   79.44
  -2   6  -8  178.58   54.50
   2   6   8  273.43   53.47
   2   6   8  356.07   74.04
  -4  -6  -8  330.37   88.39
  -4  -6  -8  140.03   63.98
   4  -6   8  353.87   83.50
   4  -6   8  162.47   48.42
  -4  -6  -8  273.97   62.35
   4   6   8  525.14  100.42
  -4   6  -8  438.54   70.21
  -4   6  -8  266.49   65.84
   4   6   8  269.77   55.79
  -6  -6  -8  132.32   61.86
  -6  -6  -8  342.63   54.84
   6  -6   8  374.39   85.25
  -6  -6  -8  193.96   72.17
   6  -6   8  231.29   51.07
  -6   6  -8  183.38   54.64
   6   6   8  230.00   51.46
   8  -6   8  292.66   76.44
  -8  -6  -8  234.48   69.07
  -8  -6  -8  203.84   69.73
   8  -6   8  143.39   45.73
   8   6   8  221.31   49.47
  -8   6  -8  237.15   63.81
 -10  -6  -8   89.26   49.37
 -10  -6  -8  158.20   53.20
  10  -6   8  145.29   44.67
 -10   6  -8  126.05   49.83
  10   6   8  255.18   53.28
  12  -6   8  108.87   41.93
  12  -6   8  106.64   41.17
 -12  -6  -8   82.97   47.59
 -12  -6  -8  141.20   57.89
  12   6   8  206.56   51.17
  14  -6   8   43.57   33.26
  14  -6   8   48.32   37.16
 -14  -6  -8  100.58   50.72
 -14  -6  -8    5.42   26.14
 -14   6  -8   -4.86   22.62
  14   6   8  143.57   49.32
 -16  -6  -8   25.76   40.08
  16  -6   8   72.04   42.75
  16  -6   8   23.78   33.04
 -16  -6  -8   63.21   44.85
 -16   6  -8   14.58   28.34
  16   6   8   93.16   37.03
  16   6   8  168.50   55.01
  15  -7  -8   59.42   62.90
 -15  -7   8   -9.53   31.05
 -15  -7   8    5.39   22.11
  15  -7  -8  -16.74   36.90
 -15   7   8   19.12   23.31
  15   7  -8    3.25   10.65
  13  -7  -8   15.09   46.84
 -13  -7   8   26.11   36.92
  13  -7  -8    7.80   40.81
 -13  -7   8    3.30   20.34
 -13   7   8   10.69   20.51
  13   7  -8    2.39   10.65
  11  -7  -8   17.35   49.82
  11  -7  -8   -1.11   34.46
 -11  -7   8    2.09   21.10
 -11  -7   8  -13.42   25.73
  11   7  -8   -4.79    8.90
  -9  -7   8    0.52   24.28
   9  -7  -8    4.01   18.36
   9  -7  -8   15.52   47.39
  -9  -7   8    4.25   20.24
   9  -7  -8   15.40   40.54
  -9   7   8    9.06   16.53
   9   7  -8   -4.93    9.06
  -7  -7   8   -8.43   18.89
  -7  -7   8   27.74   43.06
   7  -7  -8    9.12   40.98
   7  -7  -8    0.23   33.86
   7  -7  -8    1.95   20.63
  -7  -7   8   27.06   22.82
   7   7  -8  -12.81   10.67
  -7   7   8    2.13   33.76
  -7   7   8    2.28   15.33
   5  -7  -8   19.89   40.90
   5  -7  -8   -3.03   30.07
  -5  -7   8    7.31   43.58
  -5  -7   8    7.54   22.81
  -5  -7   8   19.34   24.19
   5  -7  -8    3.27   19.74
  -5   7   8    5.74   15.63
  -5   7   8    0.37   35.64
  -3  -7   8   31.58   22.91
   3  -7  -8   22.94   35.88
  -3  -7   8   66.88   55.33
   3  -7  -8   18.20   22.88
   3  -7  -8   25.01   39.75
  -3   7   8   37.22   37.73
   3   7  -8   11.93   16.20
  -3   7   8   11.63   17.09
   1  -7  -8    1.92   34.45
   1  -7  -8   15.82   19.97
  -1  -7   8   14.38   48.50
  -1  -7   8   36.72   25.62
   1  -7  -8   -1.84   27.84
   1   7  -8   37.15   18.86
  -1   7   8   -4.07   27.78
  -1   7   8   -0.58   15.19
  -1  -7  -8   39.06   41.64
   1  -7   8   16.87   23.85
  -1  -7  -8    3.33   30.04
  -1  -7  -8    7.10   18.83
   1  -7   8   49.36   55.30
   1   7   8   37.35   33.73
   1   7   8    7.73   16.74
  -1   7  -8   84.16   22.43
  -3  -7  -8   16.77   36.53
   3  -7   8    6.38   22.91
  -3  -7  -8   12.36   20.83
   3  -7   8  -17.43   43.66
  -3  -7  -8   13.13   33.20
   3   7   8   23.94   21.11
  -3   7  -8   29.33   18.03
   3   7   8   -1.67   25.29
  -5  -7  -8  -13.45   15.63
   5  -7   8   34.90   52.70
   5  -7   8    0.35   22.29
  -5  -7  -8    2.74   30.37
  -5  -7  -8    1.67   25.70
   5   7   8   -2.46   16.94
   5   7   8    3.82   26.40
   7  -7   8   -1.52   24.38
  -7  -7  -8   -5.63   23.66
  -7  -7  -8    3.36   30.60
   7  -7   8   72.71   48.58
  -7  -7  -8   57.14   24.79
   7   7   8   26.14   22.59
  -9  -7  -8   -7.15   26.06
  -9  -7  -8    6.85   22.86
   9  -7   8   10.20   28.82
   9  -7   8   19.75   48.95
  -9  -7  -8    5.82   16.86
   9   7   8   34.82   24.78
  -9   7  -8    3.06   17.81
 -11  -7  -8    1.66   27.72
 -11  -7  -8   36.47   40.42
  11  -7   8    4.73   31.44
  11   7   8   32.23   13.03
 -11   7  -8    6.57   24.23
  11   7   8   14.61   24.48
 -13  -7  -8  -15.01   26.22
 -13  -7  -8   24.37   34.21
  13  -7   8  -18.25   27.86
 -13   7  -8   -5.66   20.89
  13   7   8    0.09    2.33
  13   7   8   -4.40   22.41
 -15  -7  -8    8.92   36.92
  15  -7   8  -18.83   31.29
  15   7   8   -4.62   22.27
 -12  -8   8   -4.01   28.59
 -12  -8   8   51.35   25.96
  12  -8  -8   96.44   55.14
  12  -8  -8  201.98   83.78
 -12   8   8  161.24   36.71
  10  -8  -8  175.60   44.01
 -10  -8   8   25.01   30.76
 -10  -8   8   85.03   28.84
  10  -8  -8  183.24   69.93
  10  -8  -8  171.17   77.08
 -10   8   8   75.74   77.09
  -8  -8   8   95.22   32.74
  -8  -8   8  110.76   72.84
   8  -8  -8  197.27   68.02
   8  -8  -8  281.15   95.55
   8  -8  -8  135.06   43.56
  -8   8   8  219.20   64.90
   6  -8  -8  191.07   77.90
  -6  -8   8  128.88   34.65
   6  -8  -8  164.03   67.77
   6  -8  -8  175.48   47.13
  -6  -8   8  190.39   74.03
  -6   8   8  181.36   57.67
  -6   8   8  197.98   40.15
  -4  -8   8  149.48   69.11
   4  -8  -8  251.26   58.41
   4  -8  -8  245.86   78.64
  -4  -8   8  156.64   43.59
  -4   8   8  231.20   45.96
   4   8  -8  293.28   41.63
  -4   8   8  271.90   66.05
   2  -8  -8  278.34   89.53
  -2  -8   8  246.57   85.30
   2  -8  -8  152.71   66.83
   2  -8  -8  238.79   59.55
  -2   8   8  435.51   85.02
   2   8  -8  315.68   44.18
  -2   8   8  245.19   50.85
   0  -8   8  306.77   82.69
   0  -8  -8  311.65   55.69
   0  -8   8  166.66   47.10
   0  -8  -8  159.25   68.13
   0  -8  -8  246.55   77.90
   0   8  -8  310.43   42.82
   0   8   8  238.81   46.74
   0   8   8  367.35   79.24
  -2  -8  -8  143.49   61.73
  -2  -8  -8  118.01   53.29
   2  -8   8  169.93   42.22
  -2  -8  -8  189.44   48.93
   2  -8   8  112.27   63.58
   2   8   8  353.79   68.02
   2   8   8  217.67   43.58
   4  -8   8   88.78   33.54
   4  -8   8  233.78   71.24
  -4  -8  -8   86.32   45.75
  -4  -8  -8  208.03   48.92
  -4  -8  -8   89.07   48.81
   4   8   8  125.02   32.52
   4   8   8  261.59   55.24
  -6  -8  -8  281.75   52.34
   6  -8   8  233.01   71.95
  -6  -8  -8  205.01   75.06
   6  -8   8  129.87   43.03
   6   8   8  387.68   61.81
   6   8   8  214.30   39.84
   6   8   8  175.58   45.42
   8  -8   8   85.95   38.64
  -8  -8  -8  108.00   51.57
   8  -8   8  161.81   65.92
  -8  -8  -8  104.50   51.74
  -8  -8  -8  199.06   51.07
   8   8   8  159.88   38.11
 -10  -8  -8   49.40   36.84
  10  -8   8  133.53   39.49
 -10  -8  -8  147.20   58.98
  10   8   8  119.68   33.69
  10   8   8   92.03   20.08
  12  -8   8   35.71   35.45
 -12  -8  -8   91.49   47.13
  12   8   8   92.68   30.17
  -7  -9   8   13.60   22.15
  -7  -9   8   -2.82   45.19
   7  -9  -8   18.31   24.34
  -7   9   8   -6.81   18.67
  -7   9   8    8.91   17.75
   5  -9  -8   15.86   37.87
  -5  -9   8   52.39   54.16
   5  -9  -8   -4.55   41.00
   5  -9  -8   10.84   23.11
  -5  -9   8   21.43   22.25
  -5   9   8  -14.81   16.57
  -3  -9   8   51.38   57.76
   3  -9  -8   40.43   39.50
   3  -9  -8   33.20   26.64
   3  -9  -8   45.35   49.41
  -3  -9   8   53.25   26.84
  -3   9   8   -9.14   18.45
   1  -9  -8   -0.33   38.04
  -1  -9   8   24.76   23.12
   1  -9  -8   -1.02   29.77
  -1  -9   8  134.30   60.34
   1  -9  -8   26.37   26.32
  -1   9   8    4.37   19.97
  -1   9   8  -15.70   16.38
  -1   9   8   16.41   17.24
  -1  -9  -8   36.37   44.39
   1  -9   8   36.13   28.28
  -1  -9  -8   10.35   23.17
   1  -9   8   23.59   53.09
  -1  -9  -8    7.53   31.76
   1   9   8  -23.72   14.38
   1   9   8    4.67   18.28
   1   9   8   18.87   17.46
   3  -9   8    7.23   50.63
   3  -9   8   -1.76   23.38
  -3  -9  -8  -15.25   27.92
  -3  -9  -8   10.40   25.39
  -3  -9  -8   -9.54   25.67
   3   9   8   -9.97   15.64
   3   9   8  -18.21   14.94
   3   9   8   13.30   17.13
  -5  -9  -8   10.64   33.47
  -5  -9  -8   13.79   33.49
  -5  -9  -8   30.81   23.92
   5  -9   8   11.64   48.98
   5  -9   8   30.31   26.37
   5   9   8  -20.18   14.46
   5   9   8    3.52   16.28
   7  -9   8   12.62   44.79
   7   9   8    8.71   17.36
   7   9   8  -10.17   15.53
  20   0  -9   23.44   46.44
  20   0  -9   62.95   56.17
  18   0  -9   33.72   47.52
  18   0  -9   77.79   57.27
 -18   0   9    5.12   20.81
  16   0  -9   81.60   57.70
  16   0  -9  103.02   60.81
 -16   0   9   51.74   27.87
  14   0  -9   67.43   53.26
 -14   0   9   28.24   23.19
  14   0  -9   71.60   51.94
  12   0  -9    4.79   39.85
  12   0  -9   82.55   54.43
 -12   0   9   16.62   38.33
 -12   0   9   83.67   29.40
  10   0  -9  258.36   79.96
 -10   0   9  127.47   36.23
 -10   0   9   26.82   40.06
  10   0  -9  131.57   55.83
   8   0  -9   53.75   50.87
   8   0  -9  138.79   62.47
   8   0  -9  159.42   43.35
  -8   0   9  110.19   35.58
  -6   0   9   49.21   25.87
   6   0  -9   48.00   43.72
   6   0  -9   56.04   24.91
   6   0  -9   70.20   48.77
  -6   0   9  -11.42   27.66
  -4   0   9    1.57   28.88
   4   0  -9  122.01   32.11
   4   0  -9   44.81   42.36
  -4   0   9   56.91   28.29
   4   0  -9   80.77   48.14
  -2   0   9   62.47   29.51
   2   0  -9  113.18   33.75
   2   0  -9   68.50   41.07
  -2   0   9    4.96   33.01
   2   0  -9   80.58   46.89
   0   0  -9    5.53   34.57
   0   0  -9   23.79   23.86
   0   0  -9   14.25   33.74
   0   0   9   36.98   24.80
   0   0   9    2.24   25.72
  -2   0  -9  144.25   35.23
  -2   0  -9   60.34   41.61
   2   0   9   -0.96   20.48
  -2   0  -9   23.36   36.24
   4   0   9   51.56   28.84
  -4   0  -9   18.26   36.24
  -4   0  -9  117.48   51.77
  -4   0  -9  193.38   42.88
   6   0   9   85.34   35.80
  -6   0  -9   34.82   38.77
  -6   0  -9   77.42   46.18
  -8   0  -9   49.21   42.65
   8   0   9   44.60   29.28
  -8   0  -9   16.68   33.98
 -10   0  -9   27.59   41.34
  10   0   9   44.63   32.70
  10   0   9   53.28   33.20
 -10   0  -9    0.27   35.05
 -12   0  -9    4.31   33.54
 -12   0  -9   11.51   38.73
  12   0   9   71.19   36.98
  12   0   9   92.75   40.48
  14   0   9   17.61   34.25
 -14   0  -9   32.28   37.47
  14   0   9   55.25   35.05
 -14   0  -9   24.98   36.08
  16   0   9  -29.47   23.16
 -16   0  -9   -8.26   25.96
 -16   0  -9   -0.37   38.20
  16   0   9   13.57   33.22
 -18   0  -9   11.41   36.52
  18   0   9   13.40   35.19
 -18   0  -9    5.21   35.66
  18   0   9   -9.72   28.98
 -20   0  -9    5.31   31.54
  20   0   9   13.28   39.03
 -20   0  -9   33.97   46.96
  20   0   9   10.18   30.01
  21   1  -9    1.77   44.32
 -19  -1   9   82.80   32.70
  19  -1  -9   31.15   48.90
  19  -1  -9   87.54   59.14
  19   1  -9  121.26   60.56
  19   1  -9   90.51   60.74
  17  -1  -9  153.68   65.36
  17  -1  -9  111.16   66.83
 -17  -1   9  103.05   35.27
 -17   1   9  176.98   42.87
  17   1  -9  197.61   69.66
  17   1  -9  153.33   60.58
  15  -1  -9  188.24   66.80
 -15  -1   9  152.27   41.07
  15  -1  -9  178.03   71.56
 -15   1   9  152.82   40.13
  15   1  -9  183.44   65.26
  15   1  -9  172.13   60.63
  13  -1  -9  308.45   88.48
 -13  -1   9  183.29   43.65
  13  -1  -9  222.15   74.34
 -13  -1   9  114.44   57.76
  13   1  -9  327.36   81.95
  13   1  -9  220.72   67.09
 -13   1   9  171.20   41.97
 -11  -1   9  296.80   56.95
  11  -1  -9  437.22  107.84
  11  -1  -9  403.55  103.44
 -11  -1   9  226.20   77.15
 -11   1   9  272.56   54.34
  11   1  -9  342.75   84.49
  11   1  -9  374.24   96.34
   9  -1  -9  280.87   80.17
  -9  -1   9  149.27   66.25
   9  -1  -9  368.87   95.76
  -9  -1   9  342.46   54.93
   9   1  -9  199.74   61.84
  -9   1   9  152.44   68.04
   9   1  -9  290.52   82.71
  -9   1   9  283.05   50.49
  -7  -1   9  417.73   66.61
   7  -1  -9  373.36   93.34
  -7  -1   9  235.61   82.43
   7  -1  -9  405.03  107.21
   7   1  -9  432.75   65.81
   7   1  -9  377.95   98.06
   7   1  -9  472.43  106.96
  -7   1   9  361.40   63.83
  -5  -1   9  418.98   74.83
   5  -1  -9  517.77  102.90
   5  -1  -9  493.88  111.46
   5   1  -9  507.70   74.26
   5   1  -9  515.04  112.35
   5   1  -9  411.59  108.31
  -5   1   9  417.87   73.21
   3  -1  -9  480.85   72.10
  -3  -1   9  487.35   74.26
   3  -1  -9  274.90   94.64
   3  -1  -9  537.35  115.17
   3   1  -9  479.67   71.77
   3   1  -9  349.64   97.85
  -3   1   9  363.05   69.66
   3   1  -9  482.00  104.90
   1  -1  -9  464.54   67.84
   1  -1  -9  365.47   95.56
   1  -1  -9  351.52  101.37
  -1  -1   9  388.43   68.75
   1   1  -9  461.62   68.98
   1   1  -9  400.18   97.56
  -1   1   9  338.38   66.77
   1   1  -9  338.23   96.52
  -1  -1  -9  302.24   82.00
  -1  -1  -9  277.89   83.48
   1  -1   9  362.26   62.73
   1   1   9  401.63   62.60
  -1   1  -9  263.76   79.37
  -1   1  -9  280.91   81.85
  -3  -1  -9  509.57  111.85
  -3  -1  -9  360.94   98.95
   3  -1   9  576.51   78.29
   3   1   9  461.31   74.00
  -3   1  -9  354.41   92.32
  -3   1  -9  286.42   87.09
  -5  -1  -9  256.93   80.70
  -5  -1  -9  334.25   87.66
   5  -1   9  408.32   65.81
  -5   1  -9  257.96   80.63
  -5   1  -9  329.33   83.33
   5   1   9  382.65   65.80
  -7  -1  -9  163.98   63.74
   7  -1   9  348.67   60.52
  -7  -1  -9  287.78   82.84
   7   1   9  363.57   61.72
  -7   1  -9  263.80   69.11
  -7   1  -9  212.39   74.24
  -9  -1  -9  180.97   67.01
  -9  -1  -9  260.74   71.19
   9  -1   9  258.51   57.25
  -9   1  -9  324.07   73.20
  -9   1  -9  161.68   64.13
 -11  -1  -9  162.36   60.80
  11  -1   9  240.89   59.04
  11  -1   9  245.11   60.49
  11   1   9  317.19   67.22
  11   1   9  233.37   59.55
 -11   1  -9  174.21   64.56
 -13  -1  -9  153.95   54.05
 -13  -1  -9   90.02   49.98
  13  -1   9  174.42   52.70
  13  -1   9  194.25   54.17
 -13   1  -9  138.55   54.06
  13   1   9  236.72   59.29
  13   1   9  209.11   54.07
 -15  -1  -9   78.42   48.00
  15  -1   9  175.88   52.68
 -15  -1  -9  176.73   61.16
  15  -1   9  144.46   46.91
  15   1   9  171.69   52.18
 -15   1  -9  188.45   64.88
  15   1   9  170.82   53.64
  17  -1   9  176.61   51.93
 -17  -1  -9   30.06   45.77
 -17  -1  -9   50.93   52.15
  17  -1   9  107.49   42.67
 -17   1  -9   87.16   50.82
  17   1   9   82.02   43.02
 -17   1  -9   98.04   44.05
  17   1   9  106.93   46.70
 -19  -1  -9  -13.23   33.80
 -19  -1  -9    6.46   34.01
  19  -1   9   38.19   39.14
  19  -1   9  106.36   44.73
 -19   1  -9    9.76   38.07
  19   1   9   56.41   42.07
 -19   1  -9   21.39   41.95
  19   1   9    1.11    8.35
  19   1   9   56.11   44.48
  20  -2  -9   30.59   44.49
  20  -2  -9   80.18   59.41
  20   2  -9   22.19   43.04
  20   2  -9   10.09   40.57
  18  -2  -9    2.89   47.63
 -18  -2   9    2.79   21.66
  18  -2  -9   19.97   46.96
  18   2  -9   61.77   53.91
  18   2  -9   55.71   52.00
  16  -2  -9   59.64   54.41
  16  -2  -9   59.99   55.83
 -16  -2   9   19.59   23.68
 -16   2   9   -0.39   17.66
  16   2  -9   22.07   44.42
  16   2  -9  -11.82   34.34
  14  -2  -9    3.71   39.03
  14  -2  -9   10.06   41.52
 -14  -2   9   23.83   37.67
 -14  -2   9   16.97   22.68
 -14   2   9    2.48   16.66
  14   2  -9    3.26   30.90
  14   2  -9   25.61   42.13
 -12  -2   9   -7.90   27.26
 -12  -2   9   18.96   22.97
  12  -2  -9   -7.80   35.28
  12  -2  -9   49.90   47.58
  12   2  -9   13.04   35.69
  12   2  -9    8.87   38.16
 -12   2   9    9.14   18.55
  12   2  -9    5.97   23.41
 -10  -2   9   23.97   25.15
  10  -2  -9   35.42   48.48
  10  -2  -9   16.12   39.32
 -10  -2   9   23.11   39.28
 -10   2   9   20.93   20.19
  10   2  -9   -6.28   21.66
  10   2  -9  -15.38   30.01
  10   2  -9   38.20   45.85
   8  -2  -9   46.02   48.67
  -8  -2   9   -5.80   29.49
  -8  -2   9   23.86   23.37
   8  -2  -9   52.26   49.40
   8   2  -9   28.60   38.56
   8   2  -9   16.78   25.42
  -8   2   9   20.81   20.48
   8   2  -9   21.97   36.26
  -6  -2   9   19.25   39.29
   6  -2  -9   -0.41   34.18
   6  -2  -9   -4.30   29.92
  -6  -2   9   20.74   23.83
   6   2  -9   32.21   40.00
   6   2  -9   18.35   25.11
   6   2  -9   -7.16   28.36
  -6   2   9    3.35   18.39
  -4  -2   9   11.34   22.43
  -4  -2   9   29.69   31.29
   4  -2  -9   46.79   43.12
   4  -2  -9   72.21   51.62
  -4   2   9   21.52   23.10
   4   2  -9   54.22   38.20
  -4   2   9   -2.01   24.67
   4   2  -9   55.42   45.36
   4   2  -9   23.09   26.91
   2  -2  -9   62.93   53.13
  -2  -2   9   32.89   32.49
   2  -2  -9  -14.38   31.21
  -2  -2   9   30.04   26.95
   2   2  -9   60.88   39.71
   2   2  -9  100.46   30.27
  -2   2   9   12.32   32.26
  -2   2   9   53.15   27.10
   2   2  -9   88.90   43.20
   0  -2   9   33.50   48.66
   0  -2  -9   -1.93   33.65
   0  -2  -9   -7.22   26.78
   0  -2   9   16.62   24.86
   0   2   9   28.05   23.93
   0   2  -9    5.32   29.99
   0   2  -9   -7.70   27.45
   0   2  -9   41.05   26.51
  -2  -2  -9   38.37   39.87
  -2  -2  -9   16.09   35.42
   2  -2   9   31.63   25.36
   2  -2   9   20.48   46.58
  -2   2  -9   41.25   40.42
  -2   2  -9   -1.16   34.32
  -2   2  -9   38.95   31.29
   2   2   9   38.26   27.58
  -4  -2  -9   -0.05   26.01
  -4  -2  -9   -4.31   25.78
   4  -2   9   11.62   24.34
  -4   2  -9   37.00   38.40
   4   2   9   31.15   25.76
  -4   2  -9   71.42   31.34
  -4   2  -9   43.93   39.23
  -6  -2  -9    8.65   30.45
   6  -2   9   16.44   24.98
  -6  -2  -9   13.94   29.44
  -6   2  -9   46.46   33.62
  -6   2  -9   21.29   32.57
  -6   2  -9   26.86   35.15
   6   2   9   21.77   26.24
  -8  -2  -9  -16.14   27.48
  -8  -2  -9   14.51   32.55
   8  -2   9   14.44   24.42
  -8   2  -9   27.67   37.47
   8   2   9   57.63   33.15
  -8   2  -9   39.52   32.55
  -8   2  -9   30.48   36.39
  10  -2   9   -1.24   26.02
 -10  -2  -9   17.41   29.11
 -10  -2  -9   20.41   35.89
 -10   2  -9   -5.35   25.01
 -10   2  -9   21.08   33.61
 -10   2  -9   -6.74   30.30
  10   2   9   20.58   28.78
  12  -2   9   21.42   29.29
 -12  -2  -9   -0.86   27.53
  12  -2   9   12.30   29.93
 -12  -2  -9   34.08   41.67
 -12   2  -9    4.62   34.16
 -12   2  -9   14.34   37.36
  12   2   9   17.20   30.94
 -12   2  -9   18.64   34.59
  12   2   9   30.48   32.74
  14  -2   9   19.65   31.62
 -14  -2  -9  -15.15   21.61
  14  -2   9   38.67   35.68
 -14  -2  -9   33.60   39.42
 -14   2  -9  -14.28   25.18
 -14   2  -9    5.30   35.48
  14   2   9  -22.95   21.31
  14   2   9   17.96   33.82
  14   2   9   43.87   18.36
  16  -2   9    1.44   29.54
 -16  -2  -9    2.95   32.15
 -16  -2  -9  -22.60   26.21
  16  -2   9   26.11   35.32
  16   2   9   -2.19   10.57
 -16   2  -9   34.47   39.53
  16   2   9   22.24   35.28
 -16   2  -9   11.73   34.66
  16   2   9   21.46   33.69
 -18  -2  -9    2.63   33.42
  18  -2   9   11.56   32.54
  18  -2   9  -19.46   30.45
 -18  -2  -9   -5.17   29.27
 -18   2  -9  -21.49   30.07
  18   2   9   17.84   35.27
  18   2   9  -16.65   28.95
  18   2   9    0.48    5.32
 -18   2  -9   -5.90   28.67
  19  -3  -9   83.13   55.94
  19  -3  -9   55.08   60.00
 -19  -3   9   39.33   30.59
  19   3  -9   71.74   48.22
  19   3  -9  171.64   57.60
  17  -3  -9  127.21   64.26
  17  -3  -9   54.31   55.85
 -17  -3   9   23.03   38.54
 -17  -3   9   64.31   31.06
  17   3  -9   85.03   50.22
  17   3  -9  100.71   50.78
 -15  -3   9  125.83   57.03
 -15  -3   9   80.36   31.02
  15  -3  -9   64.26   55.15
  15  -3  -9  155.13   67.33
  15   3  -9   99.89   52.36
  15   3  -9   25.13   28.29
  15   3  -9   87.44   48.40
 -15   3   9  131.49   37.37
 -13  -3   9  113.13   55.10
  13  -3  -9  139.86   67.50
  13  -3  -9  150.82   70.54
 -13  -3   9  129.54   38.69
 -13   3   9  135.38   35.69
  13   3  -9  192.93   44.64
  13   3  -9  121.27   54.35
  13   3  -9  142.57   55.68
 -11  -3   9  138.80   39.69
 -11  -3   9   68.13   46.15
  11  -3  -9  226.99   79.52
  11  -3  -9  253.34   80.40
 -11   3   9  172.14   41.47
  11   3  -9  139.39   48.10
  11   3  -9  334.38   78.87
   9  -3  -9  181.61   74.71
  -9  -3   9   48.26   52.29
  -9  -3   9  133.64   39.08
   9  -3  -9  179.50   65.08
   9   3  -9  127.51   47.24
   9   3  -9  158.85   57.47
  -9   3   9  158.41   37.76
   7  -3  -9  312.86   89.72
   7  -3  -9  202.20   77.51
  -7  -3   9  176.49   47.02
  -7   3   9  245.77   50.99
   7   3  -9  273.05   66.65
   7   3  -9  210.37   66.81
   5  -3  -9  316.29   98.38
  -5  -3   9  175.97   75.33
  -5  -3   9  312.12   60.39
   5  -3  -9  322.84   91.51
   5   3  -9  359.54   89.07
   5   3  -9  428.75   58.17
   5   3  -9  226.30   67.04
  -5   3   9  354.99   58.20
   3  -3  -9  396.14  101.07
   3  -3  -9  227.40   78.98
  -3  -3   9  130.59   60.37
  -3  -3   9  270.53   54.71
  -3   3   9  265.49   49.07
   3   3  -9  262.34   62.82
   3   3  -9  293.68   80.19
   1  -3  -9  342.09   94.14
  -1  -3   9  425.72  100.34
  -1  -3   9  264.17   61.59
   1  -3  -9  339.31   92.99
   1  -3  -9  487.40   86.79
  -1   3   9  390.30   62.93
   1   3  -9  237.07   73.98
   1   3  -9  340.26   76.54
   1  -3   9  359.88   64.99
   1  -3   9  453.78   95.73
  -1  -3  -9  270.65   86.92
  -1  -3  -9  380.31   99.54
  -1   3  -9  338.52   80.87
   1   3   9  390.47   63.86
  -1   3  -9  303.79   84.35
  -3  -3  -9  200.34   69.80
  -3  -3  -9  137.22   63.87
   3  -3   9  232.29   52.10
   3  -3   9  363.90  143.67
  -3   3  -9  244.28   56.90
   3   3   9  329.58   62.04
  -3   3  -9  210.47   61.31
  -5  -3  -9  214.46   68.01
  -5  -3  -9  128.10   57.53
   5  -3   9  152.49   43.30
   5   3   9  258.72   55.36
  -5   3  -9  183.35   67.85
  -5   3  -9  168.82   50.03
  -7  -3  -9  108.71   53.74
   7  -3   9  150.53   43.56
  -7  -3  -9  181.23   60.39
  -7   3  -9  123.77   54.25
   7   3   9  221.09   52.70
  -7   3  -9  180.76   50.19
   9  -3   9  178.96   46.77
  -9  -3  -9  166.49   63.14
  -9  -3  -9   71.42   45.03
   9   3   9  163.81   44.62
  -9   3  -9  109.10   55.69
  -9   3  -9  159.63   56.19
  11  -3   9  120.27   41.48
  11  -3   9   81.49   38.19
 -11  -3  -9   25.12   35.78
 -11  -3  -9   55.69   43.82
 -11   3  -9   31.97   37.50
 -11   3  -9  239.12   52.24
  11   3   9   78.54   34.25
 -11   3  -9   40.83   41.93
  13  -3   9   91.62   39.56
  13  -3   9   61.29   38.90
 -13  -3  -9   54.36   37.16
 -13  -3  -9   18.71   37.28
  13   3   9  150.22   52.69
 -13   3  -9  249.53   53.68
 -13   3  -9  107.58   41.35
  13   3   9  137.26   47.70
 -13   3  -9   54.47   42.50
 -15  -3  -9  119.63   54.54
  15  -3   9   99.96   46.90
  15  -3   9   91.12   40.04
 -15  -3  -9   -1.59   31.55
 -15   3  -9  208.00   52.44
  15   3   9  147.01   44.44
 -15   3  -9   45.67   49.05
  15   3   9   85.79   43.69
 -15   3  -9   73.59   42.02
 -17  -3  -9   10.55   31.48
  17  -3   9   56.45   38.50
  17  -3   9   40.56   41.19
 -17  -3  -9    4.82   34.12
  17   3   9   54.97   41.05
  17   3   9   30.72   33.95
 -17   3  -9   32.05   44.02
 -17   3  -9   23.71   37.22
 -19  -3  -9   22.97   40.03
  19  -3   9   62.91   47.22
  19   3   9   24.73   36.72
 -19   3  -9   10.32   36.13
  18  -4  -9   24.05   54.81
 -18  -4   9   17.95   26.90
 -18  -4   9    4.16   36.92
  18  -4  -9   10.77   41.15
  18   4  -9   33.51   41.52
  18   4  -9   55.50   38.06
  18   4  -9   -1.35   37.80
 -16  -4   9    2.88   37.22
  16  -4  -9   -9.88   43.68
 -16  -4   9   11.04   24.34
  16  -4  -9   28.68   45.82
  16   4  -9   11.32   35.00
  16   4  -9   36.25   30.23
  16   4  -9   26.86   40.81
  14  -4  -9   24.34   48.48
 -14  -4   9   11.17   37.84
  14  -4  -9  -34.84   37.28
 -14  -4   9   47.86   28.64
  14   4  -9   29.53   28.75
  14   4  -9  135.51   43.82
 -14   4   9   59.48   25.73
  14   4  -9   50.22   44.57
  12  -4  -9  -19.49   33.94
 -12  -4   9   17.86   40.86
  12  -4  -9   52.50   59.60
 -12  -4   9   58.21   29.48
  12   4  -9   35.10   28.96
  12   4  -9   98.21   37.97
 -12   4   9   19.62   21.81
  12   4  -9   72.83   47.52
 -10  -4   9   16.39   38.05
 -10  -4   9   33.59   26.36
  10  -4  -9   52.07   52.32
  10  -4  -9   32.83   47.95
 -10   4   9   29.34   21.87
  10   4  -9   64.96   28.46
  10   4  -9   69.34   44.19
  10   4  -9   95.42   39.68
   8  -4  -9   12.03   44.53
  -8  -4   9   26.68   24.40
  -8  -4   9   12.97   37.89
   8  -4  -9   47.19   55.47
  -8   4   9   55.61   26.33
   8   4  -9   56.39   33.28
   8   4  -9  108.60   31.66
   8   4  -9   68.52   42.14
   6  -4  -9   22.17   41.19
   6  -4  -9  110.52   58.52
  -6  -4   9   30.53   27.09
  -6  -4   9    6.95   30.88
   6   4  -9   74.11   30.59
   6   4  -9   51.17   26.10
  -6   4   9   71.00   26.64
   6   4  -9   78.19   44.30
  -4  -4   9   77.92   31.70
  -4  -4   9   10.80   32.37
   4  -4  -9    7.79   34.74
   4  -4  -9   53.28   53.39
   4   4  -9  120.47   32.92
   4   4  -9   88.70   33.28
  -4   4   9   49.04   25.46
   4   4  -9   71.47   44.52
   2  -4  -9   74.19   41.23
  -2  -4   9  120.01   58.65
  -2  -4   9   95.95   35.06
   2  -4  -9   41.22   47.33
   2  -4  -9  125.13   59.86
   2   4  -9  118.56   38.38
   2   4  -9  181.52   36.39
  -2   4   9   68.96   30.34
   2   4  -9  125.10   49.50
   0  -4   9  111.39   58.21
   0  -4  -9   55.21   35.07
   0  -4  -9   41.58   42.77
   0  -4   9   91.25   33.18
   0  -4  -9   66.01   43.62
   0   4  -9  135.92   31.76
   0   4   9   97.28   32.65
   0   4  -9   79.66   33.83
   0   4  -9   53.50   39.35
  -2  -4  -9   18.15   37.02
   2  -4   9   29.17   46.19
  -2  -4  -9   31.59   39.30
   2  -4   9   61.92   30.30
  -2   4  -9   83.62   44.43
  -2   4  -9  102.91   31.46
  -2   4  -9   99.97   33.90
   2   4   9   66.34   28.42
   4  -4   9   58.07   29.74
  -4  -4  -9   16.19   32.10
  -4  -4  -9    4.39   29.76
   4   4   9   34.96   28.08
  -4   4  -9   25.59   30.84
  -4   4  -9   64.09   29.38
  -4   4  -9   28.91   37.93
   6  -4   9   15.30   25.31
  -6  -4  -9   26.09   35.35
  -6  -4  -9   -8.11   24.03
  -6   4  -9   35.08   29.68
  -6   4  -9   29.41   42.83
  -6   4  -9   67.30   31.08
   6   4   9    2.97   22.45
  -8  -4  -9  -19.33   19.54
   8  -4   9   40.14   29.06
  -8  -4  -9   18.24   30.68
  -8   4  -9   81.22   32.75
  -8   4  -9   20.29   36.40
   8   4   9   24.02   25.41
  -8   4  -9  -11.89   25.82
  10  -4   9   18.92   29.62
 -10  -4  -9   -9.58   25.89
 -10  -4  -9   11.18   31.20
  10   4   9   11.35   26.77
 -10   4  -9    7.90   36.17
 -10   4  -9   27.45   32.34
 -10   4  -9   27.58   31.73
 -12  -4  -9   10.32   31.96
  12  -4   9    4.53   29.50
  12  -4   9    5.55   28.10
 -12  -4  -9   11.19   36.61
 -12   4  -9   43.58   37.26
 -12   4  -9   14.86   34.22
  12   4   9   -7.77   24.45
  12   4   9   24.85   16.06
 -12   4  -9    2.40   30.98
  14  -4   9   13.72   31.02
 -14  -4  -9   19.59   34.45
 -14  -4  -9   18.89   32.47
  14  -4   9   15.92   35.20
 -14   4  -9   49.01   35.58
 -14   4  -9  -25.21   26.60
 -14   4  -9   12.49   30.99
  14   4   9    5.78   32.26
  14   4   9   17.72   28.93
  16  -4   9    3.34   30.71
  16  -4   9    6.56   37.85
 -16  -4  -9   33.56   41.39
 -16  -4  -9  -17.59   22.71
 -16   4  -9  -12.78   25.71
  16   4   9    0.31    3.97
  16   4   9   24.48   35.89
 -16   4  -9   -8.67   27.98
  16   4   9  -11.87   25.21
 -16   4  -9    1.47   36.87
  18  -4   9    6.19   36.10
  18   4   9   12.72   33.93
 -17  -5   9   57.89   30.28
  17   5  -9   62.47   37.81
  17   5  -9   60.93   27.33
 -15  -5   9  130.30   39.20
  15  -5  -9  123.76   68.98
 -15  -5   9   36.44   49.13
  15  -5  -9  263.33   89.70
  15   5  -9  150.42   38.52
 -13  -5   9  155.91   43.00
 -13  -5   9   54.95   45.22
  13  -5  -9  187.90   76.40
  13  -5  -9  128.75   66.36
  13   5  -9  270.79   44.25
 -13   5   9  195.79   45.42
  13   5  -9  279.81   66.32
 -11  -5   9  180.27   42.75
  11  -5  -9  187.13   79.61
  11  -5  -9  263.33   89.12
 -11  -5   9  117.75   58.72
 -11   5   9  176.27   42.38
  -9  -5   9  106.97   59.26
  -9  -5   9  254.01   52.57
   9  -5  -9  331.23   98.40
   9  -5  -9  310.04   96.80
   9   5  -9  313.30   47.50
   9   5  -9  218.07   63.47
  -9   5   9  206.38   46.05
  -7  -5   9  120.66   56.93
   7  -5  -9  229.75   76.84
  -7  -5   9  190.94   45.65
   7  -5  -9  345.60   97.98
   7   5  -9  206.03   58.97
   7   5  -9  165.71   37.39
  -7   5   9  260.07   50.49
   5  -5  -9  241.84   80.60
  -5  -5   9  218.46   53.43
   5  -5  -9  270.44   90.34
   5   5  -9  331.70   44.59
   5   5  -9  230.11   64.57
  -5   5   9  210.52   49.73
   3  -5  -9  301.56   91.68
  -3  -5   9  212.05   51.62
   3  -5  -9  205.98   75.59
  -3  -5   9  381.39  119.95
  -3   5   9  275.68   55.71
   3   5  -9  339.25   78.19
  -1  -5   9  318.99   61.74
   1  -5  -9  348.45   96.92
  -1  -5   9  427.17  107.09
   1  -5  -9  370.51  100.98
  -1   5   9  342.66   59.97
   1   5  -9  281.45   75.57
  -1  -5  -9  300.40   80.46
   1  -5   9  385.71   97.63
  -1  -5  -9  209.19   79.96
   1   5   9  296.47   55.12
  -3  -5  -9  248.93   73.13
   3  -5   9  387.14  105.82
   3  -5   9  231.45   50.28
  -3  -5  -9  143.21   63.69
   3   5   9  255.47   51.84
  -3   5  -9  124.85   50.93
  -5  -5  -9  164.25   65.73
  -5  -5  -9  307.17   86.23
   5  -5   9  226.81   52.03
   5   5   9  323.20   53.01
  -5   5  -9  128.56   57.22
   7  -5   9  189.90   48.92
  -7  -5  -9  151.55   63.56
  -7  -5  -9  221.00   64.00
  -7   5  -9  121.85   54.59
   7   5   9  267.61   54.73
  -9  -5  -9  141.28   53.67
  -9  -5  -9   97.55   54.95
   9  -5   9  117.15   43.56
   9   5   9  247.95   54.04
  -9   5  -9  210.03   63.82
  -9   5  -9  174.22   37.29
  11  -5   9   93.88   38.90
 -11  -5  -9  101.16   48.67
 -11  -5  -9   42.81   47.17
  11   5   9  175.59   48.03
 -11   5  -9  137.06   56.83
 -13  -5  -9   85.35   44.84
 -13  -5  -9   30.94   36.66
  13  -5   9   80.09   39.50
  13  -5   9  159.28   45.21
 -13   5  -9   -0.32   16.60
 -13   5  -9   -8.38   19.67
  13   5   9  106.34   37.86
 -13   5  -9   41.09   42.64
 -15  -5  -9   34.45   42.38
  15  -5   9   84.10   40.71
 -15  -5  -9   76.18   42.72
  15  -5   9   32.96   35.68
 -15   5  -9   -4.92   30.60
 -15   5  -9   -1.41   17.34
  15   5   9  133.10   46.62
 -15   5  -9   -7.65   16.00
  15   5   9  134.23   54.05
 -14  -6   9   33.21   26.43
  14  -6  -9   59.12   60.18
 -14  -6   9   -6.18   31.78
  14  -6  -9   70.28   65.25
  14   6  -9    0.76   13.56
  12  -6  -9   26.57   52.22
  12  -6  -9   30.03   48.44
 -12  -6   9    5.39   36.39
 -12  -6   9   30.08   26.92
 -12   6   9   16.33   20.36
  12   6  -9   -8.79   11.60
 -10  -6   9  -15.43   26.33
  10  -6  -9   -3.52   45.49
  10  -6  -9   47.97   51.55
 -10  -6   9   25.01   25.26
 -10   6   9   -2.52   16.58
  -8  -6   9   13.77   24.53
   8  -6  -9    1.12   33.23
  -8  -6   9   -3.40   26.42
   8  -6  -9    1.49   39.23
  -8   6   9   -0.59   16.23
  -6  -6   9   26.14   36.44
   6  -6  -9   37.69   50.14
   6  -6  -9    0.74   36.20
  -6  -6   9  -10.14   22.74
   6   6  -9  -32.54   17.73
  -6   6   9    7.85   17.39
   4  -6  -9    1.15   33.17
   4  -6  -9   -3.41   31.38
  -4  -6   9   11.92   24.29
  -4   6   9   11.35   18.11
   4   6  -9    8.61   26.45
  -2  -6   9   27.64   54.69
   2  -6  -9   -1.08   32.32
   2  -6  -9   36.24   45.12
  -2  -6   9   -1.79   24.19
   2   6  -9   24.48   29.91
  -2   6   9   11.40   19.75
   0  -6   9    8.62   46.05
   0  -6  -9  -25.85   23.37
   0  -6   9   26.83   26.43
   0  -6  -9   -3.36   30.16
   0   6   9    7.16   18.59
   0   6  -9   16.49   29.31
   2  -6   9    9.16   25.25
  -2  -6  -9  -12.66   27.69
  -2  -6  -9   17.60   34.76
   2  -6   9   36.85   65.48
  -2   6  -9    2.93   28.35
   2   6   9    2.32   18.52
   4  -6   9   20.31   27.45
  -4  -6  -9   -2.76   31.52
  -4  -6  -9  -19.85   22.63
   4   6   9    0.66   20.02
  -4   6  -9   -9.96   24.63
  -6  -6  -9   12.06   31.14
  -6  -6  -9   -6.91   24.56
   6  -6   9    4.18   24.88
   6   6   9   26.09   25.07
  -6   6  -9  -32.05   16.21
  -8  -6  -9   11.32   29.74
  -8  -6  -9   23.05   38.08
   8  -6   9   34.25   30.94
   8   6   9   21.68   26.56
  -8   6  -9  -20.33   16.54
 -10  -6  -9    5.67   29.86
 -10  -6  -9   19.34   37.67
  10  -6   9    7.11   32.54
 -10   6  -9   -6.72   19.67
  10   6   9   16.34   26.74
 -12  -6  -9   22.51   37.46
  12  -6   9   -3.31   30.78
 -12  -6  -9    0.84   27.60
 -12   6  -9   -6.81   19.55
  12   6   9    5.77   27.19
 -14  -6  -9   47.35   33.99
  14  -6   9   19.55   37.40
  14   6   9    1.54   25.85
  11  -7  -9   67.69   69.71
  11  -7  -9  137.47   63.97
 -11  -7   9   -7.21   32.33
 -11  -7   9   66.69   28.14
   9  -7  -9   93.10   60.67
  -9  -7   9   47.54   44.85
  -9  -7   9  107.03   33.70
   9  -7  -9  188.61   78.32
  -9   7   9  160.45   35.38
   7  -7  -9  118.21   72.46
   7  -7  -9   81.14   53.43
  -7  -7   9   30.95   37.21
  -7  -7   9  111.90   34.04
  -7   7   9  127.67   32.95
  -5  -7   9  105.90   35.22
   5  -7  -9  213.73   71.43
   5  -7  -9  104.06   54.27
  -5   7   9  155.01   37.36
   3  -7  -9  126.04   63.01
   3  -7  -9  242.34   81.65
  -3  -7   9   70.62   32.64
  -3   7   9  192.34   40.08
   1  -7  -9  187.98   72.84
   1  -7  -9  128.90   60.61
  -1  -7   9  116.20   36.74
  -1  -7   9  140.62   85.70
  -1   7   9  139.90   35.74
   1  -7   9  145.94   39.21
  -1  -7  -9  195.47   71.88
   1  -7   9  103.39   92.17
  -1  -7  -9   66.37   50.28
   1   7   9   91.67   30.41
  -3  -7  -9   57.23   51.70
   3  -7   9  100.12   34.53
  -3  -7  -9  131.78   58.93
   3   7   9   88.34   30.47
   5  -7   9  117.99   38.23
  -5  -7  -9  125.58   50.09
  -5  -7  -9  162.70   65.77
   5   7   9  114.06   35.20
   7  -7   9   65.63   33.07
  -7  -7  -9   65.27   40.76
  -7  -7  -9  113.14   52.51
   7   7   9  124.71   36.77
  -9  -7  -9   18.58   29.82
   9  -7   9   50.36   32.03
  -9  -7  -9   30.71   40.85
   9   7   9   62.93   28.48
  -9   7  -9   -5.57   19.86
 -11  -7  -9   46.14   45.64
  11  -7   9   34.90   34.88
 -11  -7  -9   51.84   39.80
  11   7   9   75.83   29.82
 -11   7  -9   12.62   24.47
   6  -8  -9   34.89   48.23
   6  -8  -9   12.63   43.84
  -6  -8   9   19.96   23.85
   6   8  -9    1.81   10.01
  -6   8   9   11.19   18.07
  -4  -8   9   -6.20   23.95
   4  -8  -9   34.47   43.27
   4  -8  -9    6.44   40.98
  -4   8   9   23.29   18.87
   4   8  -9    2.34   11.73
   2  -8  -9   25.29   40.75
  -2  -8   9  -16.86   20.95
   2  -8  -9    4.76   42.28
   2   8  -9    0.48   11.03
  -2   8   9   23.99   20.68
   0  -8  -9   26.87   38.66
   0  -8  -9   32.40   45.22
   0  -8   9   68.97   31.59
   0   8   9   -3.99   16.95
   0   8  -9    0.03   11.42
  -2  -8  -9    7.73   33.11
   2  -8   9   32.31   29.71
  -2  -8  -9   41.18   45.85
  -2   8  -9    0.15   11.87
   2   8   9   18.60   20.41
   4  -8   9   21.76   28.91
  -4  -8  -9   -9.01   26.72
  -4  -8  -9  -10.34   31.92
   4   8   9   11.17   20.84
  -4   8  -9   -2.22   12.30
  -6  -8  -9   -6.76   30.80
   6  -8   9   20.40   29.21
  -6  -8  -9   39.22   34.31
  -6   8  -9   -3.58   13.42
   6   8   9    5.72   20.90
  18   0 -10   27.01   48.04
 -18   0  10   59.33   28.95
 -16   0  10  108.30   36.09
  16   0 -10   89.25   61.78
 -14   0  10  162.37   44.03
  14   0 -10  182.91   74.82
  14   0 -10  232.59   81.08
  12   0 -10  121.59   62.33
  12   0 -10  228.33   81.78
 -12   0  10  165.50   42.37
  10   0 -10  127.27   58.63
 -10   0  10  229.36   50.72
  10   0 -10  240.50   81.20
  -8   0  10  284.50   60.55
   8   0 -10  346.32   97.44
   8   0 -10  243.42   77.94
   6   0 -10  268.22   84.02
  -6   0  10   96.78   62.43
  -6   0  10  233.29   51.22
   6   0 -10  381.63   97.16
   4   0 -10  264.84   77.45
   4   0 -10  177.95   73.16
  -4   0  10  339.21   56.98
  -4   0  10  163.47   75.61
   2   0 -10  317.49   92.24
  -2   0  10  314.05   62.42
  -2   0  10  163.42   78.89
   2   0 -10  297.72   85.96
   0   0 -10  248.36   70.46
   0   0 -10  220.42   75.04
   2   0  10  374.26   62.51
  -2   0 -10  211.61   77.69
  -2   0 -10  200.17   66.42
   4   0  10  312.31   65.89
  -4   0 -10  284.86   87.35
  -4   0 -10  276.41   73.88
  -6   0 -10  169.05   74.20
   6   0  10  300.84   61.00
  -6   0 -10  182.38   61.76
   8   0  10  259.52   61.36
  -8   0 -10  161.11   67.34
  -8   0 -10  252.08   71.78
  10   0  10  187.88   53.91
 -10   0 -10  189.10   57.35
 -10   0 -10  105.10   56.03
 -12   0 -10   55.94   51.35
 -12   0 -10  184.65   62.13
  12   0  10  140.25   46.60
  14   0  10  145.60   50.18
 -14   0 -10   81.48   47.46
 -14   0 -10   38.14   47.31
  14   0  10  195.43   56.87
 -16   0 -10   22.72   38.87
  16   0  10   82.38   47.03
  16   0  10   98.19   47.34
 -16   0 -10   25.85   46.22
  17  -1 -10   25.52   49.93
  17  -1 -10   27.68   56.76
 -17  -1  10   16.07   24.89
  17   1 -10  113.83   58.00
  17   1 -10   -1.30   38.90
 -17   1  10   16.52   23.31
  15  -1 -10   -0.26   42.91
  15  -1 -10   34.24   54.17
 -15  -1  10   20.34   24.59
 -15   1  10   23.52   23.56
  15   1 -10   10.61   45.93
  15   1 -10   -0.71   40.74
 -13  -1  10   30.86   26.29
  13  -1 -10  -26.89   36.68
  13  -1 -10   -5.34   46.56
  13   1 -10    7.85   43.07
 -13   1  10   37.00   26.29
  13   1 -10    4.99   44.47
  11  -1 -10   -7.10   40.32
  11  -1 -10   22.83   46.47
 -11  -1  10   50.76   29.02
 -11   1  10   13.77   21.73
  11   1 -10   30.56   48.55
  11   1 -10  112.11   57.97
   9  -1 -10   -1.71   36.56
   9  -1 -10   49.17   49.12
  -9  -1  10   -8.94   26.97
  -9  -1  10   35.44   27.08
  -9   1  10   14.38   23.31
   9   1 -10   38.30   45.52
   9   1 -10   -7.89   38.61
  -7  -1  10   34.60   26.89
  -7  -1  10   -3.16   32.00
   7  -1 -10   35.66   46.91
   7  -1 -10   27.61   48.47
   7   1 -10   15.25   39.29
  -7   1  10   11.21   21.86
   7   1 -10  -23.46   32.87
  -5  -1  10   32.50   48.76
  -5  -1  10   32.05   27.65
   5  -1 -10   12.92   39.94
   5  -1 -10    4.93   41.13
   5   1 -10   25.74   44.23
  -5   1  10  -12.75   17.86
   5   1 -10   51.30   47.01
   3  -1 -10   43.48   48.99
  -3  -1  10   34.32   26.82
   3  -1 -10   13.90   40.70
  -3  -1  10    6.65   35.97
   3   1 -10    8.03   37.27
  -3   1  10   29.43   26.52
   3   1 -10   16.01   26.49
   3   1 -10   17.04   39.72
   1  -1 -10   23.78   39.22
  -1  -1  10   14.28   24.51
   1  -1 -10   10.25   41.27
   1   1 -10   -1.69   38.27
  -1   1  10   42.03   28.08
   1   1 -10   66.62   50.69
   1   1 -10   31.51   29.91
  -1  -1 -10   16.01   36.92
   1  -1  10   17.77   25.71
  -1  -1 -10  -23.20   25.30
   1   1  10    6.91   23.40
  -1   1 -10    1.79   32.61
  -1   1 -10    8.81   25.04
  -1   1 -10  -16.60   29.72
  -3  -1 -10   12.14   36.39
   3  -1  10   -3.43   24.78
  -3  -1 -10  -11.20   33.01
   3   1  10   -0.05   23.16
  -3   1 -10   -0.95   34.17
  -3   1 -10   -7.14   35.79
  -3   1 -10   36.20   31.74
  -5  -1 -10   24.01   39.28
   5  -1  10   21.80   29.30
  -5  -1 -10    8.38   33.28
   5   1  10    2.69   24.92
  -5   1 -10   36.36   41.11
  -5   1 -10  -19.77   32.13
   7  -1  10    6.24   25.70
  -7  -1 -10   25.52   36.24
  -7  -1 -10  -17.38   31.06
  -7   1 -10  -11.34   28.53
   7   1  10   41.17   29.39
  -7   1 -10  -18.08   33.78
   9  -1  10   34.16   29.92
  -9  -1 -10  -14.40   28.11
  -9  -1 -10   12.53   32.02
  -9   1 -10    9.05   31.84
   9   1  10    5.42   26.87
  -9   1 -10  -26.04   29.51
 -11  -1 -10   52.34   49.88
  11  -1  10   30.69   32.46
 -11  -1 -10   10.05   34.95
  11   1  10   10.55   28.57
 -11   1 -10   22.84   40.33
 -11   1 -10   25.97   38.73
 -13  -1 -10    1.49   33.05
  13  -1  10   -3.86   31.63
  13  -1  10    8.82   30.41
 -13  -1 -10  -21.87   29.64
 -13   1 -10    3.84   32.24
  13   1  10   12.74   35.84
 -13   1 -10    0.75   36.12
  13   1  10   -1.31   27.48
 -15  -1 -10   -2.78   38.03
  15  -1  10   23.89   34.48
 -15  -1 -10    5.12   32.44
  15  -1  10   -1.81   35.10
  15   1  10   29.86   32.97
 -15   1 -10    8.60   39.88
 -15   1 -10    6.85   41.82
  15   1  10   27.03   37.59
  17  -1  10  -18.89   29.35
 -17  -1 -10   16.85   43.83
  17  -1  10   19.11   36.73
 -17   1 -10  -18.02   33.11
  17   1  10   58.09   38.39
  17   1  10   21.86   36.11
  16  -2 -10  194.05   63.58
  16  -2 -10  107.01   70.14
 -16  -2  10   99.29   36.43
  16   2 -10   13.85   42.16
  16   2 -10  134.71   65.34
 -16   2  10   41.61   27.74
  14  -2 -10  179.14   79.14
  14  -2 -10   58.58   50.39
 -14  -2  10  143.58   38.66
  14   2 -10  179.06   60.30
  14   2 -10  131.85   66.56
 -14   2  10   80.68   32.54
  12  -2 -10   73.57   57.40
 -12  -2  10  113.53   37.32
 -12  -2  10   41.47   47.96
  12  -2 -10   39.63   54.43
 -12   2  10  114.69   34.76
  12   2 -10  100.28   49.11
  12   2 -10  121.76   60.60
  10  -2 -10  170.47   72.46
 -10  -2  10   91.81   53.27
 -10  -2  10  128.56   42.33
  10  -2 -10  176.30   75.42
 -10   2  10  121.36   37.64
  10   2 -10  200.93   70.56
  10   2 -10   82.66   47.82
   8  -2 -10  162.26   73.69
  -8  -2  10  197.79   49.30
   8  -2 -10  101.12   65.19
  -8   2  10  150.04   43.59
   8   2 -10  212.68   71.28
   8   2 -10  204.49   80.77
   8   2 -10  305.75   47.05
  -6  -2  10  174.70   44.81
   6  -2 -10  168.01   64.34
   6  -2 -10  156.59   71.64
   6   2 -10  185.27   45.02
  -6   2  10  180.47   44.53
   6   2 -10  157.51   65.50
   6   2 -10  169.94   54.32
  -4  -2  10   85.07   61.79
   4  -2 -10  227.63   86.28
   4  -2 -10  184.35   69.22
  -4  -2  10  204.31   51.56
   4   2 -10  352.33   51.32
   4   2 -10  218.16   65.43
   4   2 -10  208.03   71.48
  -4   2  10  172.10   47.27
   2  -2 -10  208.44   74.95
  -2  -2  10  155.93   73.34
   2  -2 -10  190.62   71.88
  -2  -2  10  189.85   50.50
   2   2 -10  219.37   60.14
   2   2 -10  253.48   77.66
  -2   2  10  217.75   51.85
   0  -2 -10   89.77   53.58
   0  -2  10  213.08   48.53
   0  -2 -10   60.61   48.44
   0   2  10  226.94   51.08
   0   2 -10  249.60   72.05
   0   2 -10  182.99   65.50
   2  -2  10  203.44   46.39
  -2  -2 -10   90.65   49.83
  -2  -2 -10   89.05   52.43
   2   2  10  183.81   47.54
  -2   2 -10   49.10   48.04
  -2   2 -10  114.99   53.40
   4  -2  10  141.86   44.79
  -4  -2 -10  149.49   58.03
  -4  -2 -10  122.84   59.34
   4   2  10  238.92   53.33
  -4   2 -10  126.89   55.19
  -4   2 -10  158.79   55.62
   6  -2  10  159.21   46.46
  -6  -2 -10   69.96   48.36
  -6  -2 -10  134.38   53.89
   6   2  10  149.95   44.91
  -6   2 -10  131.38   60.55
  -6   2 -10  195.26   60.16
  -8  -2 -10  114.73   51.13
  -8  -2 -10   50.73   43.44
   8  -2  10   70.19   34.58
  -8   2 -10  172.66   55.16
  -8   2 -10  158.14   42.65
   8   2  10   58.87   33.31
  -8   2 -10   15.60   38.08
 -10  -2 -10   39.05   35.57
 -10  -2 -10   38.49   42.34
  10  -2  10   67.44   34.21
 -10   2 -10   48.55   44.64
  10   2  10  110.54   41.92
 -10   2 -10   46.49   45.96
  12  -2  10  145.48   47.97
 -12  -2 -10  127.93   47.63
  12   2  10   99.49   39.67
 -12   2 -10   17.26   42.26
 -12   2 -10   88.64   45.72
  14  -2  10  109.55   43.93
  14  -2  10   66.15   38.50
 -14  -2 -10   14.56   38.88
 -14  -2 -10   23.41   47.77
  14   2  10  103.24   43.97
  14   2  10   93.74   44.27
 -14   2 -10    1.61   36.91
 -16  -2 -10   40.74   46.75
 -16  -2 -10   97.28   49.04
  16  -2  10   92.82   41.93
  16  -2  10   54.03   39.91
 -16   2 -10   15.08   40.60
  16   2  10   37.43   36.20
 -16   2 -10  -11.45   34.38
  16   2  10   86.52   44.60
  15  -3 -10   43.29   56.75
 -15  -3  10   12.94   25.40
  15  -3 -10   60.58   55.88
  15   3 -10   22.25   44.47
 -15   3  10   -7.56   17.81
  15   3 -10   10.00   42.77
 -13  -3  10    8.17   26.92
 -13  -3  10   12.67   38.57
  13  -3 -10    4.54   41.57
  13  -3 -10   22.27   52.06
  13   3 -10   28.74   44.80
 -13   3  10   10.51   20.20
  13   3 -10    9.74   40.51
  11  -3 -10   45.86   53.96
 -11  -3  10   22.19   47.67
 -11  -3  10   30.04   28.96
  11  -3 -10   54.54   59.80
  11   3 -10   59.09   29.89
  11   3 -10   53.55   44.15
 -11   3  10   39.33   25.66
  11   3 -10   14.01   41.39
  -9  -3  10   24.67   28.12
   9  -3 -10   59.61   54.51
  -9  -3  10   10.00   39.38
   9  -3 -10   21.43   43.05
   9   3 -10   56.50   43.61
  -9   3  10   37.31   26.17
   9   3 -10   43.54   32.53
   9   3 -10   26.61   46.66
  -7  -3  10   21.73   26.43
  -7  -3  10    5.86   35.47
   7  -3 -10    5.13   38.41
   7  -3 -10   -3.58   37.85
   7   3 -10   18.72   40.99
   7   3 -10   -9.60   30.42
  -7   3  10    7.50   21.00
   7   3 -10   23.84   31.24
  -5  -3  10   63.41   33.34
   5  -3 -10   12.96   39.15
  -5  -3  10   19.26   41.00
   5  -3 -10   58.70   56.12
   5   3 -10   55.81   29.59
  -5   3  10   45.89   26.56
   5   3 -10   45.11   47.03
   5   3 -10   68.68   42.75
   3  -3 -10   25.31   45.61
  -3  -3  10   46.90   30.83
   3  -3 -10  172.00   64.73
   3   3 -10   91.59   45.87
   3   3 -10   73.81   32.86
   3   3 -10   46.56   46.91
  -3   3  10   92.50   34.60
   1  -3 -10   54.81   48.16
   1  -3 -10   30.56   42.77
  -1  -3  10   32.50   29.68
  -1   3  10   19.72   25.55
   1   3 -10   56.26   37.01
   1   3 -10   80.97   52.79
   1   3 -10   34.66   31.56
   1  -3  10   24.02   29.28
  -1  -3 -10   19.67   37.90
  -1  -3 -10   10.44   38.09
  -1   3 -10   23.60   37.01
  -1   3 -10   71.63   33.54
  -1   3 -10    6.30   36.55
   1   3  10   16.89   23.39
  -3  -3 -10   32.58   43.49
  -3  -3 -10    5.39   32.21
   3  -3  10   42.69   27.75
  -3   3 -10   27.27   38.92
   3   3  10   59.86   33.56
  -3   3 -10  141.05   38.17
  -3   3 -10   37.07   41.70
   5  -3  10   -2.71   26.28
  -5  -3 -10   28.63   34.05
  -5  -3 -10   -1.54   28.55
  -5   3 -10    8.61   40.22
  -5   3 -10   41.36   41.64
   5   3  10    6.08   26.07
  -5   3 -10   30.01   33.60
   7  -3  10   22.37   28.22
  -7  -3 -10   11.90   28.94
  -7  -3 -10  -31.51   24.79
   7   3  10  -13.88   22.50
  -7   3 -10    8.02   33.45
  -7   3 -10   15.17   33.47
  -7   3 -10    5.37   38.05
  -9  -3 -10    1.85   36.47
  -9  -3 -10  -10.65   28.54
   9  -3  10   23.87   30.92
  -9   3 -10    0.16   33.79
   9   3  10   23.63   31.90
  -9   3 -10   24.35   40.29
  -9   3 -10   19.76   39.63
  11  -3  10   24.63   34.40
 -11  -3 -10  -17.77   24.43
 -11  -3 -10   25.28   36.37
 -11   3 -10   43.97   42.17
  11   3  10  -18.62   25.00
 -11   3 -10    0.41   35.09
 -11   3 -10   42.13   41.36
 -13  -3 -10   26.52   39.08
  13  -3  10   29.43   35.00
 -13  -3 -10   18.22   40.42
  13   3  10    8.69   28.77
 -13   3 -10   -8.96   33.33
 -13   3 -10  -10.39   31.92
 -13   3 -10   10.88   36.37
  15  -3  10   27.58   37.84
  15  -3  10   11.56   37.54
 -15  -3 -10    0.46   34.87
 -15  -3 -10    6.47   31.89
  15   3  10   30.59   38.99
 -15   3 -10  -14.30   31.80
 -15   3 -10    3.70   36.35
  15   3  10   48.92   39.45
  14  -4 -10  215.08   84.76
 -14  -4  10    3.78   43.55
 -14  -4  10  117.88   39.79
  14  -4 -10   61.41   53.06
  14   4 -10  146.23   58.55
 -14   4  10  130.35   38.48
  12  -4 -10  179.72   79.18
  12  -4 -10  173.44   76.19
 -12  -4  10  201.73   49.93
  12   4 -10  153.80   44.34
  12   4 -10  186.11   48.61
 -12   4  10  181.02   47.61
  12   4 -10  235.92   65.70
 -10  -4  10  122.55   63.93
  10  -4 -10  260.17   88.34
  10  -4 -10  208.78   82.61
 -10  -4  10  203.17   49.30
  10   4 -10  190.59   49.55
  10   4 -10  173.45   62.01
 -10   4  10  158.49   42.99
  -8  -4  10  192.77   48.03
   8  -4 -10  271.86   94.68
   8  -4 -10  212.51   79.33
  -8  -4  10   55.65   53.30
  -8   4  10  185.11   43.50
   8   4 -10  209.53   47.92
   8   4 -10  234.20   68.41
  -6  -4  10  179.88   50.17
   6  -4 -10  286.06   96.69
   6  -4 -10  242.07   82.64
  -6  -4  10  135.66   67.73
  -6   4  10  188.94   46.72
   6   4 -10  257.15   73.15
   6   4 -10  323.94   50.58
   4  -4 -10  279.36   87.96
  -4  -4  10  211.94   57.05
   4  -4 -10  280.72   90.77
  -4   4  10  257.85   60.00
   4   4 -10  345.58   84.70
   4   4 -10  341.10   58.48
   4   4 -10  446.48   65.59
   2  -4 -10  391.41  104.88
   2  -4 -10  354.62  112.28
  -2  -4  10  356.21   71.78
   2   4 -10  450.14   75.92
   2   4 -10  277.64   84.72
   2   4 -10  523.02   68.47
  -2   4  10  388.23   69.98
   0  -4  10  362.32   67.56
   0  -4 -10  257.25   94.71
   0   4 -10  451.37   63.32
   0   4 -10  357.61   67.14
   0   4 -10  244.13   74.61
   0   4  10  351.20   71.79
  -2  -4 -10  165.90   73.58
  -2  -4 -10  256.74   84.64
   2  -4  10  249.80   57.73
  -2   4 -10  359.36   59.22
  -2   4 -10  191.85   64.43
   2   4  10  300.00   64.05
  -4  -4 -10  297.51   90.27
  -4  -4 -10  177.37   61.19
   4  -4  10  394.09   62.40
  -4   4 -10  222.36   54.47
  -4   4 -10  206.98   64.65
   4   4  10  255.64   61.87
  -6  -4 -10  240.70   76.51
   6  -4  10  196.38   50.91
  -6  -4 -10  149.02   64.87
   6   4  10  268.60   57.67
  -6   4 -10  145.19   54.26
  -6   4 -10  225.45   54.82
  -8  -4 -10  202.02   61.49
   8  -4  10  123.32   39.50
  -8  -4 -10   69.53   42.76
  -8   4 -10  118.12   54.71
  -8   4 -10  134.20   47.43
   8   4  10   69.50   35.83
 -10  -4 -10   71.49   46.89
  10  -4  10  101.92   41.47
 -10  -4 -10  162.18   62.88
  10   4  10  122.15   42.47
 -10   4 -10  110.71   59.55
 -10   4 -10  182.22   45.98
  12  -4  10  138.21   49.49
 -12  -4 -10  139.97   57.36
 -12  -4 -10   76.93   50.22
 -12   4 -10   46.11   55.45
 -12   4 -10  104.74   44.75
  12   4  10  135.28   47.43
 -14  -4 -10  106.81   54.14
  14  -4  10   31.92   37.70
 -14  -4 -10   18.65   36.00
 -14   4 -10   -8.40   22.01
 -14   4 -10   93.19   48.90
 -14   4 -10   42.83   40.29
  14   4  10   79.69   38.48
 -13  -5  10   50.17   30.79
  13  -5 -10   -4.93   47.32
  13  -5 -10   -7.81   45.86
 -13  -5  10    2.27   37.43
  13   5 -10  -12.01   12.74
  13   5 -10    0.03   13.99
 -13   5  10   24.14   23.20
 -11  -5  10   31.64   28.94
  11  -5 -10   21.81   50.08
 -11  -5  10   37.40   48.38
  11  -5 -10   83.94   60.63
  11   5 -10    4.70   13.60
  11   5 -10   -8.65   13.66
  11   5 -10  -28.45   20.85
 -11   5  10   10.07   19.90
  -9  -5  10    5.91   38.45
  -9  -5  10   34.45   27.49
   9  -5 -10   39.94   56.51
   9  -5 -10   36.47   54.40
   9   5 -10    0.77   11.50
  -9   5  10   35.33   23.02
   9   5 -10   -6.22   13.66
   9   5 -10   79.43   41.85
   7  -5 -10    2.66   41.79
   7  -5 -10  -13.43   34.82
  -7  -5  10   13.16   39.55
  -7  -5  10   16.77   26.83
  -7   5  10    8.36   19.61
   7   5 -10   41.15   35.79
   7   5 -10   -8.63   14.09
   7   5 -10   -0.08    9.74
  -5  -5  10   34.99   42.77
   5  -5 -10  -14.40   32.91
  -5  -5  10    0.58   26.75
   5  -5 -10  -17.03   32.68
   5   5 -10   -8.55   12.45
  -5   5  10   17.78   22.04
   5   5 -10   51.67   39.86
   5   5 -10    1.02   10.00
   3  -5 -10   -1.08   35.05
  -3  -5  10   15.35   26.64
   3  -5 -10   34.23   43.20
   3   5 -10  111.24   44.20
   3   5 -10    4.63   10.39
  -3   5  10   13.55   21.57
   1  -5 -10   11.67   37.52
  -1  -5  10   -0.17   27.35
   1  -5 -10   23.32   39.79
   1   5 -10    1.80   33.09
  -1   5  10   11.51   22.07
  -1  -5 -10    8.21   33.99
   1  -5  10   23.82   29.67
  -1  -5 -10   29.71   40.85
  -1   5 -10   26.29   39.45
   1   5  10   12.67   21.14
   3  -5  10   49.71   30.41
  -3  -5 -10   11.10   39.17
  -3  -5 -10   94.46   51.08
  -3   5 -10   41.34   40.26
   3   5  10   43.42   27.07
  -5  -5 -10   37.23   40.12
  -5  -5 -10    0.90   26.28
   5  -5  10  -10.84   24.10
   5   5  10    2.83   21.86
  -5   5 -10   35.91   40.04
  -7  -5 -10   15.94   36.89
  -7  -5 -10   -4.25   29.57
   7  -5  10    7.85   28.32
  -7   5 -10    9.28   37.45
   7   5  10   10.44   25.29
  -7   5 -10   -5.08   10.79
   9  -5  10   34.41   33.18
  -9  -5 -10   26.30   36.59
  -9  -5 -10   18.45   37.58
   9   5  10   30.40   30.72
  -9   5 -10  -20.96   24.70
  -9   5 -10   -2.56   12.15
  -9   5 -10   -4.05   12.61
 -11  -5 -10   -1.89   26.41
 -11  -5 -10  -16.79   29.52
  11  -5  10   11.48   33.19
 -11   5 -10  -16.96   24.95
 -11   5 -10   -3.74   13.15
  11   5  10   -4.95   26.85
 -11   5 -10   -0.81   14.19
 -10  -6  10   37.91   49.12
 -10  -6  10  115.93   37.97
  10  -6 -10  154.97   72.27
  10  -6 -10  163.27   79.82
 -10   6  10  161.32   40.43
   8  -6 -10  141.95   71.28
  -8  -6  10   83.55   35.88
  -8  -6  10   39.11   46.28
   8  -6 -10   94.23   68.67
  -8   6  10  169.06   40.19
  -6  -6  10   -0.61   29.63
  -6  -6  10   74.52   32.69
   6  -6 -10  173.80   72.33
   6  -6 -10   86.26   57.65
  -6   6  10  161.83   38.98
  -4  -6  10  117.37   40.45
   4  -6 -10  134.04   66.04
   4  -6 -10  257.52   87.17
  -4   6  10  164.20   43.61
   2  -6 -10  183.12   71.83
   2  -6 -10  102.97   57.04
  -2  -6  10  101.30   38.35
  -2   6  10  196.50   46.44
   0  -6  10  113.32   40.28
   0  -6 -10  132.00   68.56
   0  -6 -10  233.24   79.15
   0   6  10  175.63   45.08
  -2  -6 -10   23.85   43.80
  -2  -6 -10  127.66   57.98
   2  -6  10  140.40   39.13
   2   6  10  103.03   34.80
  -4  -6 -10  119.11   55.98
   4  -6  10   73.60   36.15
  -4  -6 -10  195.63   70.35
   4   6  10  166.72   43.59
   6  -6  10   50.97   35.74
  -6  -6 -10  132.83   59.19
  -6  -6 -10   98.90   52.52
   6   6  10  155.91   43.41
   8  -6  10   55.19   33.56
  -8  -6 -10   41.35   44.35
  -8  -6 -10  188.36   68.63
  -8   6 -10   -3.74   22.51
   8   6  10  119.95   41.01
  10  -6  10   74.25   37.74
  10   6  10  128.85   43.75
  -5  -7  10   19.35   28.06
   5  -7 -10   -7.03   39.53
  -5   7  10    8.45   18.19
   3  -7 -10   68.74   57.13
  -3  -7  10    8.08   27.97
   3  -7 -10  -11.86   32.33
   3   7 -10   -0.19   14.15
  -3   7  10    0.35   18.37
   1  -7 -10   -9.50   29.58
  -1  -7  10   22.76   28.05
   1  -7 -10  -10.06   34.13
  -1   7  10    6.13   19.19
   1   7 -10    5.42   16.73
   1  -7  10   46.84   31.46
  -1  -7 -10   32.06   35.45
  -1  -7 -10   11.86   36.40
  -1   7 -10   -1.64   15.94
   1   7  10   21.78   22.99
   3  -7  10    2.34   27.92
  -3  -7 -10   31.74   44.74
  -3  -7 -10   46.23   46.36
   3   7  10   25.63   23.57
  -3   7 -10   10.23   18.48
   5  -7  10   15.58   29.65
   5   7  10   13.80   21.58
  14   0 -11   -2.11   47.99
 -14   0  11   -1.52   21.96
  14   0 -11    1.06   47.90
 -12   0  11   10.81   24.58
  12   0 -11   10.00   52.89
  12   0 -11   56.67   56.49
 -10   0  11   35.48   29.73
  10   0 -11   -2.23   40.23
  10   0 -11   78.70   63.62
   8   0 -11   33.71   51.34
  -8   0  11   16.48   26.81
   8   0 -11   -4.23   37.12
  -6   0  11   16.84   27.15
   6   0 -11  -17.98   37.95
   6   0 -11   42.47   50.42
  -4   0  11   21.17   26.28
   4   0 -11  -17.72   36.18
   4   0 -11   18.91   46.10
  -2   0  11   37.85   31.50
   2   0 -11   -4.05   38.69
   2   0 -11   45.36   49.54
   0   0 -11   37.53   48.77
   0   0  11   28.94   30.26
   0   0 -11   12.60   45.64
   2   0  11   13.74   29.31
  -2   0 -11  -31.97   29.43
  -2   0 -11    7.58   36.02
   4   0  11   -3.46   25.39
  -4   0 -11   23.07   44.26
  -4   0 -11   22.56   43.80
  -6   0 -11   53.09   50.30
   6   0  11  -12.82   24.87
  -6   0 -11   17.26   43.60
  -8   0 -11   10.77   35.90
   8   0  11    3.06   27.42
  -8   0 -11    6.03   37.67
 -10   0 -11    1.62   34.24
 -10   0 -11    0.17   32.94
  10   0  11   -6.45   26.83
 -12   0 -11   12.26   38.20
  12   0  11   16.90   33.77
 -12   0 -11   63.22   54.53
 -13  -1  11   75.67   33.27
  13  -1 -11  118.72   71.38
  13  -1 -11   69.09   63.14
  13   1 -11  108.23   55.61
  13   1 -11   94.06   59.91
 -13   1  11   70.18   33.13
 -11  -1  11  143.88   39.12
  11  -1 -11  149.92   77.28
  11  -1 -11  127.17   67.58
  11   1 -11   67.51   49.32
  11   1 -11  103.79   61.26
 -11   1  11   56.34   30.47
   9  -1 -11  189.10   80.00
  -9  -1  11  143.94   44.31
   9  -1 -11  192.58   77.14
   9   1 -11  148.56   71.90
   9   1 -11   61.54   51.05
  -9   1  11  121.13   40.64
   7  -1 -11  151.30   73.33
   7  -1 -11  265.91   87.45
  -7  -1  11   97.72   38.19
  -7   1  11  184.73   45.75
   7   1 -11   69.93   46.66
   7   1 -11  169.39   71.65
   5  -1 -11  238.30   81.85
  -5  -1  11  196.21   49.95
   5  -1 -11  114.83   67.75
   5   1 -11  195.32   77.83
  -5   1  11  144.36   42.65
   5   1 -11  123.60   54.85
  -3  -1  11  185.81   49.64
   3  -1 -11  165.58   72.49
   3  -1 -11  277.07   87.59
   3   1 -11  192.88   73.44
   3   1 -11  180.76   74.11
  -3   1  11  155.19   46.60
  -1  -1  11  168.58   48.52
   1  -1 -11  198.72   68.15
   1  -1 -11  307.26   89.87
   1   1 -11  173.08   67.84
   1   1 -11  173.12   64.16
  -1   1  11  143.95   44.54
  -1  -1 -11  184.01   67.67
   1  -1  11   99.40   40.56
  -1  -1 -11  186.16   67.93
   1   1  11  178.07   47.81
  -1   1 -11  103.33   55.79
  -1   1 -11  182.45   66.59
  -3  -1 -11  143.00   64.36
   3  -1  11  141.56   46.74
  -3  -1 -11  139.23   61.91
   3   1  11  221.24   55.07
  -3   1 -11  118.81   58.38
  -3   1 -11  203.65   66.20
   5  -1  11  121.97   42.41
  -5  -1 -11   82.84   48.38
  -5  -1 -11  130.07   58.90
  -5   1 -11  106.94   52.27
  -5   1 -11  137.70   52.75
   5   1  11  100.30   41.41
   7  -1  11   51.66   37.51
  -7  -1 -11   34.17   51.18
  -7  -1 -11   38.15   44.98
  -7   1 -11  168.23   59.20
   7   1  11   44.09   35.01
  -7   1 -11   93.22   55.14
   9  -1  11   78.35   39.07
  -9  -1 -11   72.37   53.03
  -9  -1 -11   73.31   58.69
   9   1  11  100.84   40.39
  -9   1 -11   99.77   57.12
  -9   1 -11  105.61   49.41
 -11  -1 -11  133.69   56.83
  11  -1  11   24.68   33.96
 -11  -1 -11    6.15   39.74
  11   1  11   50.09   36.78
 -11   1 -11   41.59   56.51
 -11   1 -11  103.69   49.01
 -13  -1 -11   49.03   52.48
  13  -1  11   15.72   35.51
  13   1  11   86.25   37.69
 -13   1 -11   98.92   51.81
  12  -2 -11   41.16   57.27
 -12  -2  11   16.19   28.82
  12  -2 -11    8.02   50.42
  12   2 -11    8.15   44.70
 -12   2  11   29.85   27.01
  12   2 -11   68.66   53.07
 -10  -2  11   11.81   28.81
  10  -2 -11  -24.52   33.93
  10  -2 -11   21.90   47.31
 -10   2  11   39.10   28.43
  10   2 -11   13.73   48.08
  10   2 -11  -23.19   38.76
   8  -2 -11   12.18   48.10
   8  -2 -11   39.01   52.75
  -8  -2  11   29.14   31.70
   8   2 -11   78.03   54.74
   8   2 -11   12.86   44.15
  -8   2  11    5.83   23.43
  -6  -2  11   11.31   39.99
  -6  -2  11   13.67   28.42
   6  -2 -11   36.66   51.14
   6  -2 -11    4.57   42.28
   6   2 -11   19.89   47.51
   6   2 -11  -13.47   36.94
  -6   2  11   18.49   25.47
  -4  -2  11   -3.85   36.40
   4  -2 -11   41.87   43.56
  -4  -2  11   51.72   33.93
   4  -2 -11   14.14   41.79
   4   2 -11   29.27   44.16
   4   2 -11   -8.30   38.58
  -4   2  11    0.40   22.14
  -2  -2  11   12.67   27.84
   2  -2 -11   17.70   42.18
   2  -2 -11   35.97   43.73
   2   2 -11   24.62   44.88
  -2   2  11   20.01   25.76
   2   2 -11   30.69   44.82
   0  -2 -11   22.94   41.43
   0  -2  11   27.26   28.78
   0  -2 -11    9.33   39.30
   0   2  11    6.60   25.73
   0   2 -11   33.95   51.45
   0   2 -11   93.22   48.98
  -2  -2 -11   -3.48   31.94
   2  -2  11  -10.22   27.14
  -2  -2 -11   48.41   50.48
  -2   2 -11   17.63   43.64
   2   2  11   20.04   27.42
  -2   2 -11    3.55   42.08
   4  -2  11   28.64   32.73
  -4  -2 -11    5.47   37.99
  -4  -2 -11   17.81   40.26
  -4   2 -11    8.67   43.36
   4   2  11    9.47   24.98
  -4   2 -11   15.13   46.78
  -6  -2 -11    3.14   37.63
   6  -2  11    1.00   29.19
  -6  -2 -11   29.16   43.01
  -6   2 -11  -21.25   34.24
   6   2  11   23.37   30.15
  -6   2 -11   -2.89   36.19
  -8  -2 -11   12.08   39.82
  -8  -2 -11   19.53   40.67
   8  -2  11   24.97   32.15
  -8   2 -11    3.86   40.05
  -8   2 -11  -11.74   33.33
   8   2  11   16.55   29.31
  10  -2  11  -10.16   28.26
 -10  -2 -11   14.16   39.74
 -10  -2 -11   12.79   38.02
 -10   2 -11  -24.01   31.73
 -10   2 -11   -8.83   34.26
  10   2  11  -10.35   24.61
 -12  -2 -11   17.84   39.99
 -12  -2 -11   15.58   42.71
  12  -2  11   -4.18   30.87
  12   2  11   41.21   34.28
 -12   2 -11   38.62   48.97
 -12   2 -11    5.70   39.87
 -11  -3  11  106.51   39.96
  11  -3 -11  170.39   77.32
  11  -3 -11  101.58   73.22
 -11   3  11  129.60   39.41
  11   3 -11  220.02   70.45
  11   3 -11   48.25   50.19
   9  -3 -11  335.21   91.55
   9  -3 -11  202.16   82.04
  -9  -3  11   64.07   59.92
  -9  -3  11  106.13   41.14
   9   3 -11  178.62   71.85
  -9   3  11  113.67   39.59
   9   3 -11  346.91   70.78
   9   3 -11  124.01   50.30
  -7  -3  11   40.47   53.65
  -7  -3  11  157.45   46.33
   7  -3 -11  152.75   72.16
   7  -3 -11  137.33   68.52
   7   3 -11  215.61   46.14
   7   3 -11  120.75   51.08
   7   3 -11  131.30   62.06
  -7   3  11  123.87   40.05
  -5  -3  11  141.08   44.72
   5  -3 -11  215.36   82.66
   5  -3 -11  209.51   75.94
  -5  -3  11   56.21   59.35
   5   3 -11  217.90   69.15
  -5   3  11  123.67   42.43
   5   3 -11  231.94   66.51
   5   3 -11  218.61   48.53
   3  -3 -11  153.53   66.16
   3  -3 -11   82.35   57.67
  -3  -3  11  194.31   52.57
  -3   3  11  184.40   50.79
   3   3 -11  202.64   59.64
   3   3 -11  225.58   76.64
   3   3 -11  337.44   54.40
   1  -3 -11  113.60   56.51
   1  -3 -11  166.36   68.11
  -1  -3  11  178.03   49.63
   1   3 -11  243.04   57.60
   1   3 -11  238.29   52.81
  -1   3  11  206.00   51.29
   1   3 -11  131.40   60.34
   1  -3  11  127.56   45.82
  -1  -3 -11  108.30   58.78
  -1  -3 -11  211.85   76.89
  -1   3 -11  228.50   58.32
   1   3  11  167.96   47.19
  -1   3 -11  133.17   59.08
  -1   3 -11  190.41   56.91
  -3  -3 -11  120.24   58.43
  -3  -3 -11   64.77   46.65
   3  -3  11  132.21   44.53
  -3   3 -11  235.85   61.33
  -3   3 -11   98.76   52.99
   3   3  11  169.28   49.28
  -5  -3 -11   81.79   58.43
   5  -3  11  105.93   39.42
  -5  -3 -11   96.13   52.57
   5   3  11  171.83   47.74
  -5   3 -11  161.23   58.73
  -5   3 -11  201.65   51.99
  -5   3 -11  122.46   54.74
  -7  -3 -11   37.91   45.03
   7  -3  11  140.06   44.62
  -7  -3 -11   74.45   53.58
  -7   3 -11   68.01   52.21
  -7   3 -11  111.24   49.78
   7   3  11   91.34   38.51
  -7   3 -11  214.91   56.00
  -9  -3 -11  125.08   58.91
   9  -3  11  115.79   43.40
  -9  -3 -11   31.62   43.68
  -9   3 -11   94.76   55.19
   9   3  11  127.32   46.25
  -9   3 -11   64.08   41.11
  -9   3 -11  243.34   64.53
  11  -3  11   75.40   42.28
 -11  -3 -11   66.35   44.35
  11   3  11  114.36   47.58
 -11   3 -11   42.01   40.92
 -10  -4  11   39.43   51.09
  10  -4 -11   -3.26   44.12
 -10  -4  11   31.67   31.59
  10   4 -11    4.25   19.22
  10   4 -11   10.39   34.31
 -10   4  11    3.84   21.35
  -8  -4  11   16.31   29.68
   8  -4 -11   43.90   60.55
  -8  -4  11   13.13   46.22
   8  -4 -11   23.54   47.07
   8   4 -11   13.12   34.53
   8   4 -11   61.05   51.45
   8   4 -11    2.29   18.87
  -8   4  11   11.31   22.57
  -6  -4  11   21.25   42.64
   6  -4 -11   23.86   45.87
  -6  -4  11   24.11   33.05
   6  -4 -11   -0.05   39.95
  -6   4  11    3.12   21.99
   6   4 -11  -11.30   16.95
   6   4 -11   -3.51   28.42
   6   4 -11   47.95   47.86
   4  -4 -11  -11.60   32.95
   4  -4 -11   24.23   46.17
  -4  -4  11  -15.62   27.65
   4   4 -11   29.06   46.07
   4   4 -11    9.71   33.31
   4   4 -11  -23.68   15.50
  -4   4  11   17.47   23.88
   2  -4 -11    5.44   43.83
  -2  -4  11   29.67   30.73
   2  -4 -11   53.63   41.48
  -2   4  11    4.02   23.19
   2   4 -11  -21.14   14.92
   2   4 -11  -20.58   34.79
   2   4 -11   35.20   36.66
   0  -4 -11   41.47   50.28
   0  -4 -11   10.32   39.10
   0  -4  11   33.22   33.42
   0   4 -11   20.12   44.87
   0   4 -11   68.96   37.86
   0   4  11   41.83   30.24
   0   4 -11  -24.76   17.40
  -2  -4 -11   -5.13   30.52
  -2  -4 -11   49.45   49.35
   2  -4  11   -8.63   28.35
  -2   4 -11   70.22   39.23
   2   4  11   37.39   28.93
  -2   4 -11    2.45   41.85
  -4  -4 -11   -4.53   32.81
  -4  -4 -11   27.58   43.13
  -4   4 -11   45.68   50.94
   4   4  11   19.53   27.41
  -4   4 -11   29.83   35.82
  -4   4 -11  -17.68   17.68
  -6  -4 -11    9.83   38.03
  -6  -4 -11    3.26   34.87
   6  -4  11  -13.65   29.57
  -6   4 -11   31.14   33.91
  -6   4 -11   81.21   44.26
  -6   4 -11   -9.10   19.74
   6   4  11   15.57   28.26
  -8  -4 -11   20.29   35.55
   8  -4  11   -1.59   28.65
  -8  -4 -11   -2.07   34.14
  -8   4 -11    0.23   21.30
  -8   4 -11   19.93   42.41
   8   4  11   28.34   33.49
  -8   4 -11   60.15   38.71
  -7  -5  11   91.80   36.54
  -7   5  11   54.05   26.66
   7   5 -11    6.65   14.23
   5  -5 -11  122.94   62.93
  -5  -5  11   80.88   37.47
   5  -5 -11   88.66   61.62
  -5   5  11   93.84   35.02
  -3  -5  11   96.49   38.57
   3  -5 -11  235.12   83.99
   3  -5 -11  147.24   73.99
  -3   5  11  138.88   41.85
  -1  -5  11   75.07   34.77
   1  -5 -11  161.14   70.83
   1  -5 -11  146.23   57.91
  -1   5  11  127.14   40.65
  -1  -5 -11   38.63   49.01
  -1  -5 -11  113.65   53.20
   1  -5  11   76.03   37.44
   1   5  11  106.90   36.08
  -3  -5 -11   76.43   47.08
  -3  -5 -11  182.67   60.32
   3  -5  11  119.72   43.86
   3   5  11  137.01   43.64
  -5  -5 -11  153.21   54.36
   5  -5  11   86.84   36.86
  -5  -5 -11   40.06   48.69
   5   5  11  137.51   43.66
   7   5  11  132.47   46.39
  -8   0  12  116.02   40.05
   6   0 -12  168.47   73.85
  -6   0  12   97.81   39.52
   6   0 -12  184.93   82.12
  -4   0  12  106.91   40.58
   4   0 -12  176.47   71.75
   4   0 -12  146.03   64.18
   2   0 -12  120.10   61.76
  -2   0  12  188.30   48.79
   2   0 -12   77.80   54.79
   0   0 -12  225.29   75.76
   0   0 -12  152.64   62.06
   0   0  12  152.71   48.48
  -2   0 -12   94.92   53.40
  -2   0 -12   70.79   58.59
   2   0  12  103.76   40.29
  -4   0 -12   34.13   44.22
   4   0  12   88.70   41.86
  -4   0 -12   53.35   53.57
   6   0  12  118.65   44.36
  -6   0 -12   78.62   56.77
   7  -1 -12   17.74   51.16
   7  -1 -12   87.52   69.89
  -7  -1  12   47.36   33.24
   7   1 -12   -4.72   45.15
   7   1 -12  -16.28   43.97
  -7   1  12    1.69   28.04
  -5  -1  12   -6.23   26.00
   5  -1 -12   50.80   53.63
   5  -1 -12   67.44   66.79
  -5   1  12   16.07   26.15
   5   1 -12   31.04   50.53
   5   1 -12   38.95   56.43
   3  -1 -12   93.35   58.37
  -3  -1  12   52.44   34.52
   3  -1 -12   52.36   57.43
   3   1 -12   11.48   48.45
   3   1 -12   39.88   49.04
  -3   1  12   49.66   31.85
   1  -1 -12  -17.49   32.32
  -1  -1  12   16.01   29.55
   1  -1 -12    6.36   42.35
  -1   1  12   12.19   29.75
   1   1 -12   17.26   46.81
   1   1 -12    7.04   43.72
  -1  -1 -12   44.45   60.15
   1  -1  12   27.41   33.92
  -1  -1 -12    5.20   43.20
  -1   1 -12   28.37   49.21
   1   1  12   24.16   30.03
  -1   1 -12    2.09   41.43
  -3  -1 -12    3.81   40.63
  -3  -1 -12   23.92   47.76
   3  -1  12   30.22   31.44
  -3   1 -12   17.33   46.23
  -3   1 -12  -13.96   40.82
   3   1  12   12.35   26.94
  -5  -1 -12   63.28   52.70
  -5  -1 -12  -28.21   33.90
   5  -1  12   -1.02   28.53
  -5   1 -12  -11.78   40.96
  -5   1 -12  -14.34   39.12
   5   1  12    6.40   28.24
   7  -1  12   29.51   34.72
   7   1  12   64.11   33.87
  -6  -2  12   88.13   37.40
  -6   2  12   54.08   33.91
   4  -2 -12   84.32   59.64
   4  -2 -12   45.86   57.42
  -4  -2  12  127.42   45.16
   4   2 -12  214.36   78.63
  -4   2  12  156.24   45.96
   4   2 -12  185.32   67.72
  -2  -2  12  180.74   49.92
   2  -2 -12  172.22   70.04
   2  -2 -12  127.19   67.45
   2   2 -12  213.51   77.93
  -2   2  12  118.31   43.80
   2   2 -12  169.69   63.58
   0  -2 -12  126.95   58.64
   0  -2 -12   89.68   61.26
   0  -2  12   85.69   43.51
   0   2  12  122.47   42.32
   0   2 -12  100.37   51.25
  -2  -2 -12   77.67   61.12
  -2  -2 -12   10.46   42.33
   2  -2  12  150.45   43.58
  -2   2 -12    4.94   45.11
   2   2  12  147.78   45.02
  -2   2 -12  164.71   56.95
  -4  -2 -12   39.90   49.19
  -4  -2 -12   99.01   58.32
   4  -2  12   59.53   37.05
  -4   2 -12   -9.64   42.75
  -4   2 -12   13.71   46.61
   4   2  12  121.54   44.46
   6   2  12  142.56   51.07
  -3  -3  12    6.59   32.85
  -3   3  12   20.02   27.22
   1  -3 -12    9.60   40.67
  -1  -3  12    0.70   28.08
  -1   3  12    5.31   24.89
   1   3 -12   -9.93   38.76
   1  -3  12   21.63   31.32
   1   3  12   26.80   26.35
   3   3  12   15.15   29.99
   0   0   0    0.00    0.00

_computing_structure_solution     'SHELXT 2018/2 (Sheldrick, 2018)'
;
_shelx_hkl_checksum                85321
_olex2_submission_special_instructions  'No special instructions were received'
loop_
  _twin_individual_id
  _twin_individual_mass_fraction_refined
 1 0.08(5)
 2 0.92(5)

