data_mo_ate_euk_300k_0m_a
_audit_creation_date               2025-08-22
_audit_creation_method
;
Olex2 1.5
(compiled 2025.05.31 svn.r86d253d1 for OlexSys, GUI svn.r7254)
;
_shelx_SHELXL_version_number       '2019/3'
_audit_contact_author_address      ?
_audit_contact_author_email        ?
_audit_contact_author_name         ''
_audit_contact_author_phone        ?
_publ_contact_author_id_orcid      ?
_publ_section_references
;
Dolomanov, O.V., Bourhis, L.J., Gildea, R.J, Howard, J.A.K. & Puschmann, H.
 (2009), J. Appl. Cryst. 42, 339-341.

Sheldrick, G.M. (2015). Acta Cryst. A71, 3-8.

Sheldrick, G.M. (2015). Acta Cryst. C71, 3-8.
;
_chemical_name_common              ?
_chemical_name_systematic          ?
_chemical_formula_moiety           '2(Eu0.5 K0.5 N4 O12), 4(C7 H15 N4)'
_chemical_formula_sum              'C28 H60 Eu K N24 O24'
_chemical_formula_weight           1308.06
_chemical_melting_point            ?
loop_
  _atom_type_symbol
  _atom_type_description
  _atom_type_scat_dispersion_real
  _atom_type_scat_dispersion_imag
  _atom_type_scat_source
 'C' 'C' 0.0033 0.0016 'International Tables Vol C Tables 4.2.6.8 and 6.1.1.4'
 'H' 'H' 0.0000 0.0000 'International Tables Vol C Tables 4.2.6.8 and 6.1.1.4'
 'Eu' 'Eu' -0.1578 3.6682
 'International Tables Vol C Tables 4.2.6.8 and 6.1.1.4'
 'K' 'K' 0.2009 0.2494 'International Tables Vol C Tables 4.2.6.8 and 6.1.1.4'
 'N' 'N' 0.0061 0.0033 'International Tables Vol C Tables 4.2.6.8 and 6.1.1.4'
 'O' 'O' 0.0106 0.0060 'International Tables Vol C Tables 4.2.6.8 and 6.1.1.4'

_shelx_space_group_comment
;
The symmetry employed for this shelxl refinement is uniquely defined
by the following loop, which should always be used as a source of
symmetry information in preference to the above space-group names.
They are only intended as comments.
;
_space_group_crystal_system        'monoclinic'
_space_group_IT_number             12
_space_group_name_H-M_alt          'C 1 2/m 1'
_space_group_name_Hall             '-C 2y'
loop_
  _space_group_symop_operation_xyz
 'x, y, z'
 '-x, y, -z'
 'x+1/2, y+1/2, z'
 '-x+1/2, y+1/2, -z'
 '-x, -y, -z'
 'x, -y, z'
 '-x+1/2, -y+1/2, -z'
 'x+1/2, -y+1/2, z'

_cell_length_a                     13.912(3)
_cell_length_b                     13.774(3)
_cell_length_c                     26.185(7)
_cell_angle_alpha                  90
_cell_angle_beta                   92.711(7)
_cell_angle_gamma                  90
_cell_volume                       5012(2)
_cell_formula_units_Z              4
_cell_measurement_reflns_used      6097
_cell_measurement_temperature      296.00
_cell_measurement_theta_max        28.56
_cell_measurement_theta_min        2.20
_shelx_estimated_absorpt_T_max     0.869
_shelx_estimated_absorpt_T_min     0.858
_exptl_absorpt_coefficient_mu      1.441
_exptl_absorpt_correction_T_max    0.7458
_exptl_absorpt_correction_T_min    0.6266
_exptl_absorpt_correction_type     none
_exptl_absorpt_process_details
;
SADABS-2016/2 (Bruker,2016/2) was used for absorption correction.
wR2(int) was 0.1532 before and 0.0610 after correction.
The Ratio of minimum to maximum transmission is 0.8402.
The \l/2 correction factor is Not present.
;
_exptl_absorpt_special_details     ?
_exptl_crystal_colour              colourless
_exptl_crystal_colour_primary      colourless
_exptl_crystal_density_diffrn      1.733
_exptl_crystal_density_meas        ?
_exptl_crystal_density_method      ?
_exptl_crystal_description         block
_exptl_crystal_F_000               2680
_exptl_crystal_size_max            0.11
_exptl_crystal_size_mid            0.1
_exptl_crystal_size_min            0.1
_exptl_transmission_factor_max     ?
_exptl_transmission_factor_min     ?
_diffrn_reflns_av_R_equivalents    0.0660
_diffrn_reflns_av_unetI/netI       0.0649
_diffrn_reflns_Laue_measured_fraction_full  0.997
_diffrn_reflns_Laue_measured_fraction_max  0.997
_diffrn_reflns_limit_h_max         16
_diffrn_reflns_limit_h_min         -16
_diffrn_reflns_limit_k_max         16
_diffrn_reflns_limit_k_min         -16
_diffrn_reflns_limit_l_max         31
_diffrn_reflns_limit_l_min         -29
_diffrn_reflns_number              15760
_diffrn_reflns_point_group_measured_fraction_full  0.997
_diffrn_reflns_point_group_measured_fraction_max  0.997
_diffrn_reflns_theta_full          25.026
_diffrn_reflns_theta_max           25.026
_diffrn_reflns_theta_min           2.082
_diffrn_ambient_temperature        296.00
_diffrn_detector_area_resol_mean   ?
_diffrn_measured_fraction_theta_full  0.997
_diffrn_measured_fraction_theta_max  0.997
_diffrn_measurement_device_type    'Bruker APEX-II CCD'
_diffrn_measurement_method         '\f and \w scans'
_diffrn_radiation_type             MoK\a
_diffrn_radiation_wavelength       0.71073
_diffrn_source                     ?
_diffrn_source_current             1.4
_diffrn_source_power               0.07
_diffrn_source_voltage             50.0
_diffrn_standards_number           0
_reflns_Friedel_coverage           0.000
_reflns_Friedel_fraction_full      .
_reflns_Friedel_fraction_max       .
_reflns_number_gt                  3508
_reflns_number_total               4627
_reflns_special_details
;
 Reflections were merged by SHELXL according to the crystal
 class for the calculation of statistics and refinement.
 
 _reflns_Friedel_fraction is defined as the number of unique
 Friedel pairs measured divided by the number that would be
 possible theoretically, ignoring centric projections and
 systematic absences.
;
_reflns_threshold_expression       'I > 2\s(I)'
_computing_cell_refinement         'SAINT V8.40B (?, 2016)'
_computing_data_collection         ?
_computing_data_reduction          'SAINT V8.40B (?, 2016)'
_computing_molecular_graphics      'Olex2 1.5 (Dolomanov et al., 2009)'
_computing_publication_material    'Olex2 1.5 (Dolomanov et al., 2009)'
_computing_structure_refinement    'SHELXL 2019/3 (Sheldrick, 2015)'
_computing_structure_solution      'SHELXT 2018/2 (Sheldrick, 2018)'
_refine_diff_density_max           2.107
_refine_diff_density_min           -3.498
_refine_diff_density_rms           0.246
_refine_ls_extinction_coef         .
_refine_ls_extinction_method       none
_refine_ls_goodness_of_fit_ref     1.066
_refine_ls_hydrogen_treatment      constr
_refine_ls_matrix_type             full
_refine_ls_number_parameters       404
_refine_ls_number_reflns           4627
_refine_ls_number_restraints       135
_refine_ls_R_factor_all            0.1110
_refine_ls_R_factor_gt             0.0970
_refine_ls_restrained_S_all        1.074
_refine_ls_shift/su_max            0.000
_refine_ls_shift/su_mean           0.000
_refine_ls_structure_factor_coef   Fsqd
_refine_ls_weighting_details      
 'w=1/[\s^2^(Fo^2^)+(0.1387P)^2^+153.4234P] where P=(Fo^2^+2Fc^2^)/3'
_refine_ls_weighting_scheme        calc
_refine_ls_wR_factor_gt            0.2636
_refine_ls_wR_factor_ref           0.2744
_refine_special_details            ?
_olex2_refinement_description
;
1. Shared sites
{Eu2, K2}
{N15, O15}
2. Restrained distances
 O9-N2 = O2-N2
 1.3 with sigma of 0.01
3. Rigid bond restraints
 K1, O11
 with sigma for 1-2 distances of 0.01 and sigma for 1-3 distances of 0.02
4. Uiso/Uaniso restraints and constraints
Eu1 \\sim K1 \\sim O1 \\sim O4 \\sim O5 \\sim O6 \\sim O8 \\sim O10 \\sim O11
\\sim O14 \\sim O17 \\sim N1 \\sim N8 \\sim N13 \\sim N17: within 2A with sigma
of 0.01 and sigma for terminal atoms of 0.02 within 2A
Eu2 \\sim K2 \\sim O2 \\sim O3 \\sim O7 \\sim O9 \\sim O12 \\sim O13 \\sim O15
\\sim O16 \\sim N2 \\sim N3 \\sim N15: within 2A with sigma of 0.01 and sigma
for terminal atoms of 0.02 within 2A
Uanis(K1) \\sim Ueq: with sigma of 0.001 and sigma for terminal atoms of 0.002
Uanis(O11) \\sim Ueq: with sigma of 0.005 and sigma for terminal atoms of 0.01
Uanis(Eu2) = Uanis(K2)
Uanis(N15) = Uanis(O15)
5. Others
 Fixed Sof: Eu2(0.25) K2(0.25) O2(0.5) O7(0.5) O13(0.5) O15(0.5) N2(0.5)
 N15(0.5) H3A(0.5) H3B(0.5) H3C(0.5) H10A(0.5) H10B(0.5) H8A(0.5) H8B(0.5)
 H9A(0.5) H9B(0.5) H9C(0.5)
6.a Riding coordinates:
 C3(H3A,H3B,H3C), C9(H9A,H9B,H9C)
6.b Secondary CH2 refined with riding coordinates:
 C7(H7A,H7B), C10(H10A,H10B), C11(H11A,H11B), C15(H15A,H15B), C1(H1A,H1B),
 C4(H4A,H4B), C6(H6A,H6B), C12(H12A,H12B), C13(H13A,H13B), C16(H16A,H16B),
 C5(H5A,H5B), C8(H8A,H8B), C14(H14A,H14B), C17(H17A,H17B)
6.c Idealised Me refined as rotating group:
 C2(H2A,H2B,H2C)
;
_atom_sites_solution_hydrogens     mixed
_atom_sites_solution_primary       dual
_atom_sites_solution_secondary     ?
loop_
  _atom_site_label
  _atom_site_type_symbol
  _atom_site_fract_x
  _atom_site_fract_y
  _atom_site_fract_z
  _atom_site_U_iso_or_equiv
  _atom_site_adp_type
  _atom_site_occupancy
  _atom_site_site_symmetry_order
  _atom_site_calc_flag
  _atom_site_refinement_flags_posn
  _atom_site_refinement_flags_adp
  _atom_site_refinement_flags_occupancy
  _atom_site_disorder_assembly
  _atom_site_disorder_group
 Eu1 Eu 0.500000 0.500000 0.000000 0.0120(3) Uani 1 4 d S T P . .
 K1 K 1.000000 0.500000 0.000000 0.131(4) Uani 1 4 d S TU P . .
 O1 O 0.5753(6) 0.6681(5) 0.0095(3) 0.0341(16) Uani 1 1 d . U . . .
 O4 O 0.6632(8) 0.500000 0.0499(4) 0.038(2) Uani 1 2 d S TU P . .
 O5 O 0.500000 0.8047(9) 0.000000 0.073(4) Uani 1 2 d S TU P . .
 O6 O 0.6749(8) 0.500000 -0.0308(4) 0.038(2) Uani 1 2 d S TU P . .
 O8 O 0.5213(6) 0.4212(5) -0.0885(3) 0.0367(17) Uani 1 1 d . U . . .
 O10 O 0.5657(10) 0.500000 -0.1554(5) 0.052(3) Uani 1 2 d S TU P . .
 O11 O 0.8036(11) 0.500000 0.0191(6) 0.068(3) Uani 1 2 d S TU P . .
 O14 O 0.9807(8) 0.5785(8) 0.1029(4) 0.061(2) Uani 1 1 d . U . . .
 O17 O 0.9002(11) 0.500000 0.1587(5) 0.063(3) Uani 1 2 d S TU P . .
 N1 N 0.7172(9) 0.500000 0.0127(6) 0.037(2) Uani 1 2 d S TU P . .
 N8 N 0.500000 0.7191(9) 0.000000 0.045(3) Uani 1 2 d S TU P . .
 N13 N 0.9544(13) 0.500000 0.1219(6) 0.054(3) Uani 1 2 d S TU P . .
 N17 N 0.5351(10) 0.500000 -0.1125(5) 0.034(3) Uani 1 2 d S TU P . .
 Eu2 Eu 0.750000 0.750000 0.500000 0.0357(4) Uani 0.5 2 d S U P A 1
 K2 K 0.750000 0.750000 0.500000 0.0357(4) Uani 0.5 2 d S U P A 2
 O2 O 0.9108(15) 0.7495(13) 0.5517(7) 0.058(4) Uani 0.5 1 d D U P . .
 O3 O 0.8310(12) 0.7534(8) 0.3426(4) 0.082(4) Uani 1 1 d . U . . .
 O7 O 0.8214(16) 0.5832(15) 0.5105(8) 0.065(4) Uani 0.5 1 d . U P . .
 O9 O 0.9336(9) 0.7460(8) 0.4722(5) 0.075(3) Uani 1 1 d D U . . .
 O12 O 0.7711(7) 0.8296(8) 0.4057(4) 0.060(2) Uani 1 1 d . U . . .
 O13 O 0.6721(16) 0.5814(14) 0.4901(8) 0.059(4) Uani 0.5 1 d . U P . .
 O15 O 0.7454(9) 0.5441(9) 0.4978(5) 0.069(3) Uani 0.5 1 d . U P A 4
 O16 O 0.7705(8) 0.6736(8) 0.4049(4) 0.068(3) Uani 1 1 d . U . . .
 N2 N 0.9740(14) 0.7477(17) 0.5171(6) 0.063(4) Uani 0.5 1 d D U P A .
 N3 N 0.7901(10) 0.7517(8) 0.3832(5) 0.055(3) Uani 1 1 d . U . . .
 N15 N 0.7454(9) 0.5441(9) 0.4978(5) 0.069(3) Uani 0.5 1 d . U P A 3
 N4 N 0.4956(10) 0.500000 0.3746(5) 0.038(3) Uani 1 2 d S T P . .
 N10 N 0.5793(7) 0.5890(8) 0.3097(4) 0.044(2) Uani 1 1 d . . . . .
 N12 N 0.4322(10) 0.500000 0.2855(5) 0.041(3) Uani 1 2 d S T P . .
 C3 C 0.4659(16) 0.500000 0.4290(7) 0.066(6) Uani 1 2 d S T P . .
 H3A H 0.410397 0.459430 0.432129 0.099 Uiso 0.5 1 d R U P B -1
 H3B H 0.450897 0.565050 0.439119 0.099 Uiso 0.5 1 d R U P B -1
 H3C H 0.518007 0.475520 0.450709 0.099 Uiso 0.5 1 d R U P B -1
 C7 C 0.4911(10) 0.5867(10) 0.2770(5) 0.050(3) Uani 1 1 d . . . . .
 H7A H 0.507927 0.588327 0.241471 0.060 Uiso 1 1 calc R U . . .
 H7B H 0.453275 0.644201 0.283446 0.060 Uiso 1 1 calc R U . . .
 C10 C 0.4036(12) 0.500000 0.3377(7) 0.045(4) Uani 1 2 d S T P . .
 H10A H 0.364999 0.442933 0.343911 0.054 Uiso 0.5 1 calc R U P . .
 H10B H 0.364999 0.557067 0.343911 0.054 Uiso 0.5 1 calc R U P . .
 C11 C 0.5515(9) 0.5907(10) 0.3621(5) 0.049(3) Uani 1 1 d . . . . .
 H11A H 0.512092 0.647461 0.367651 0.059 Uiso 1 1 calc R U . . .
 H11B H 0.608579 0.595113 0.384728 0.059 Uiso 1 1 calc R U . . .
 C15 C 0.6329(14) 0.500000 0.2987(8) 0.058(5) Uani 1 2 d S T P . .
 H15A H 0.648198 0.500000 0.262939 0.070 Uiso 1 2 calc R U P . .
 H15B H 0.693050 0.499999 0.318986 0.070 Uiso 1 2 calc R U P . .
 N5 N 0.8211(8) 0.7535(7) 0.2128(4) 0.042(3) Uani 1 1 d . . . . .
 N7 N 0.6758(8) 0.8444(8) 0.1898(4) 0.050(3) Uani 1 1 d . . . . .
 N9 N 0.7556(7) 0.7536(6) 0.1250(4) 0.036(2) Uani 1 1 d . . . . .
 N11 N 0.6728(7) 0.6667(7) 0.1913(4) 0.040(2) Uani 1 1 d . . . . .
 C1 C 0.7615(10) 0.6662(9) 0.2235(5) 0.047(3) Uani 1 1 d . . . . .
 H1A H 0.797890 0.607848 0.216845 0.057 Uiso 1 1 calc R U . . .
 H1B H 0.745927 0.665905 0.259179 0.057 Uiso 1 1 calc R U . . .
 C2 C 0.7814(12) 0.7512(11) 0.0705(5) 0.060(4) Uani 1 1 d . . . . .
 H2A H 0.808335 0.812667 0.061382 0.090 Uiso 1 1 calc R U . . .
 H2B H 0.724725 0.738724 0.049154 0.090 Uiso 1 1 calc R U . . .
 H2C H 0.827752 0.700795 0.065765 0.090 Uiso 1 1 calc R U . . .
 C4 C 0.8471(10) 0.7514(8) 0.1605(5) 0.042(3) Uani 1 1 d . . . . .
 H4A H 0.883574 0.692943 0.154164 0.050 Uiso 1 1 calc R U . . .
 H4B H 0.887276 0.806969 0.153492 0.050 Uiso 1 1 calc R U . . .
 C6 C 0.7642(10) 0.8405(10) 0.2227(5) 0.049(3) Uani 1 1 d . . . . .
 H6A H 0.802674 0.897782 0.216759 0.059 Uiso 1 1 calc R U . . .
 H6B H 0.747504 0.840883 0.258227 0.059 Uiso 1 1 calc R U . . .
 C12 C 0.6979(9) 0.8431(9) 0.1369(5) 0.044(3) Uani 1 1 d . . . . .
 H12A H 0.734347 0.900736 0.129000 0.052 Uiso 1 1 calc R U . . .
 H12B H 0.638625 0.843668 0.115848 0.052 Uiso 1 1 calc R U . . .
 C13 C 0.6179(10) 0.7562(10) 0.2009(6) 0.051(3) Uani 1 1 d . . . . .
 H13A H 0.600443 0.757423 0.236352 0.062 Uiso 1 1 calc R U . . .
 H13B H 0.559046 0.756398 0.179528 0.062 Uiso 1 1 calc R U . . .
 C16 C 0.6956(9) 0.6634(9) 0.1389(5) 0.045(3) Uani 1 1 d . . . . .
 H16A H 0.636751 0.661539 0.117533 0.054 Uiso 1 1 calc R U . . .
 H16B H 0.731950 0.604879 0.132475 0.054 Uiso 1 1 calc R U . . .
 N6 N 0.9933(11) 0.500000 0.3755(5) 0.043(3) Uani 1 2 d S T P . .
 N14 N 0.9245(10) 0.500000 0.2886(6) 0.043(3) Uani 1 2 d S T P . .
 N16 N 1.0730(8) 0.5876(9) 0.3082(4) 0.050(3) Uani 1 1 d . . . . .
 C5 C 1.0532(10) 0.5896(10) 0.3623(5) 0.049(3) Uani 1 1 d . . . . .
 H5A H 1.018156 0.648248 0.369985 0.059 Uiso 1 1 calc R U . . .
 H5B H 1.113241 0.589636 0.382679 0.059 Uiso 1 1 calc R U . . .
 C8 C 0.9036(11) 0.500000 0.3414(6) 0.038(4) Uani 1 2 d S T P . .
 H8A H 0.865531 0.443060 0.348677 0.046 Uiso 0.5 1 calc R U P . .
 H8B H 0.865531 0.556940 0.348677 0.046 Uiso 0.5 1 calc R U P . .
 C9 C 0.972(2) 0.500000 0.4300(7) 0.070(7) Uani 1 2 d S T P . .
 H9A H 0.915173 0.538270 0.434938 0.104 Uiso 0.5 1 d R U P C -1
 H9B H 1.025193 0.527120 0.449568 0.104 Uiso 0.5 1 d R U P C -1
 H9C H 0.960813 0.434600 0.441008 0.104 Uiso 0.5 1 d R U P C -1
 C14 C 1.1286(15) 0.500000 0.2988(8) 0.055(5) Uani 1 2 d S T P . .
 H14A H 1.186508 0.499998 0.320989 0.066 Uiso 1 2 calc R U P . .
 H14B H 1.147859 0.500002 0.263707 0.066 Uiso 1 2 calc R U P . .
 C17 C 0.9820(9) 0.5864(10) 0.2768(5) 0.046(3) Uani 1 1 d . . . . .
 H17A H 0.945334 0.644558 0.283502 0.055 Uiso 1 1 calc R U . . .
 H17B H 0.995917 0.586031 0.240863 0.055 Uiso 1 1 calc R U . . .

loop_
  _atom_site_aniso_label
  _atom_site_aniso_U_11
  _atom_site_aniso_U_22
  _atom_site_aniso_U_33
  _atom_site_aniso_U_23
  _atom_site_aniso_U_13
  _atom_site_aniso_U_12
 Eu1 0.0133(5) 0.0106(4) 0.0121(5) 0.000 0.0007(3) 0.000
 K1 0.131(4) 0.131(4) 0.131(4) 0.000 0.0067(11) 0.000
 O1 0.036(4) 0.028(4) 0.039(4) -0.002(3) 0.006(3) -0.011(3)
 O4 0.029(5) 0.039(5) 0.045(6) 0.000 -0.004(4) 0.000
 O5 0.102(9) 0.019(5) 0.101(9) 0.000 0.018(8) 0.000
 O6 0.025(5) 0.042(5) 0.046(6) 0.000 -0.008(4) 0.000
 O8 0.043(4) 0.033(4) 0.035(4) 0.001(3) 0.007(3) 0.000(3)
 O10 0.060(8) 0.057(7) 0.041(7) 0.000 0.024(6) 0.000
 O11 0.058(4) 0.073(5) 0.070(5) 0.000 -0.013(4) 0.000
 O14 0.070(6) 0.066(5) 0.048(5) 0.001(4) 0.013(4) -0.017(5)
 O17 0.070(8) 0.073(8) 0.050(7) 0.000 0.032(6) 0.000
 N1 0.015(4) 0.043(5) 0.051(5) 0.000 -0.013(4) 0.000
 N8 0.064(7) 0.015(5) 0.057(6) 0.000 0.022(6) 0.000
 N13 0.059(7) 0.060(7) 0.044(6) 0.000 0.020(6) 0.000
 N17 0.032(6) 0.044(6) 0.027(5) 0.000 0.006(5) 0.000
 Eu2 0.0302(8) 0.0352(7) 0.0416(8) 0.0018(5) 0.0031(6) -0.0138(5)
 K2 0.0302(8) 0.0352(7) 0.0416(8) 0.0018(5) 0.0031(6) -0.0138(5)
 O2 0.060(10) 0.054(9) 0.059(9) -0.009(7) 0.005(8) -0.026(7)
 O3 0.125(11) 0.072(7) 0.050(6) -0.007(5) 0.016(7) -0.004(6)
 O7 0.070(8) 0.054(7) 0.071(8) 0.008(6) 0.011(7) -0.010(7)
 O9 0.064(7) 0.078(7) 0.084(7) 0.006(6) 0.017(6) 0.001(5)
 O12 0.052(5) 0.063(5) 0.066(6) -0.006(5) 0.008(4) 0.004(4)
 O13 0.063(8) 0.053(7) 0.061(7) 0.007(6) 0.015(7) -0.019(6)
 O15 0.077(6) 0.057(5) 0.074(5) 0.001(4) 0.014(5) -0.007(4)
 O16 0.072(6) 0.052(5) 0.079(6) -0.004(5) 0.002(5) -0.008(5)
 N2 0.059(9) 0.061(8) 0.071(9) -0.006(7) 0.014(7) -0.016(7)
 N3 0.055(6) 0.053(5) 0.056(6) -0.010(4) 0.001(5) 0.002(4)
 N15 0.077(6) 0.057(5) 0.074(5) 0.001(4) 0.014(5) -0.007(4)
 N4 0.034(8) 0.045(8) 0.036(7) 0.000 0.005(6) 0.000
 N10 0.036(5) 0.045(6) 0.051(6) -0.004(5) -0.001(5) -0.009(5)
 N12 0.037(8) 0.053(8) 0.033(7) 0.000 -0.002(6) 0.000
 C3 0.047(12) 0.12(2) 0.035(10) 0.000 0.017(9) 0.000
 C7 0.054(8) 0.048(7) 0.047(7) 0.010(6) 0.005(6) 0.005(6)
 C10 0.029(9) 0.049(10) 0.056(11) 0.000 -0.011(8) 0.000
 C11 0.039(7) 0.053(8) 0.055(8) -0.003(6) -0.006(6) -0.006(6)
 C15 0.036(10) 0.083(15) 0.056(12) 0.000 0.007(9) 0.000
 N5 0.044(6) 0.038(6) 0.044(6) 0.004(4) -0.008(5) -0.006(4)
 N7 0.046(6) 0.049(6) 0.056(7) -0.004(5) 0.001(5) 0.008(5)
 N9 0.032(5) 0.039(5) 0.036(5) -0.006(4) 0.000(4) -0.005(4)
 N11 0.042(6) 0.046(6) 0.033(5) 0.002(4) 0.007(4) -0.006(5)
 C1 0.057(8) 0.039(6) 0.045(7) 0.002(5) 0.005(6) -0.008(6)
 C2 0.063(10) 0.079(11) 0.038(7) -0.009(6) 0.009(7) -0.026(8)
 C4 0.035(7) 0.038(6) 0.053(8) 0.000(5) 0.002(6) -0.008(5)
 C6 0.056(8) 0.049(7) 0.042(7) -0.012(6) -0.006(6) -0.006(6)
 C12 0.038(7) 0.046(7) 0.046(7) 0.007(5) -0.003(5) 0.003(5)
 C13 0.036(7) 0.065(9) 0.054(8) -0.010(6) 0.014(6) -0.001(6)
 C16 0.041(7) 0.045(7) 0.049(7) -0.005(5) -0.001(6) -0.015(6)
 N6 0.039(8) 0.058(9) 0.033(7) 0.000 0.004(6) 0.000
 N14 0.034(8) 0.047(8) 0.047(8) 0.000 -0.005(6) 0.000
 N16 0.039(6) 0.064(7) 0.049(6) 0.009(5) 0.008(5) -0.013(5)
 C5 0.058(8) 0.050(8) 0.040(7) -0.011(6) 0.002(6) -0.016(6)
 C8 0.026(8) 0.048(9) 0.042(9) 0.000 0.000(7) 0.000
 C9 0.102(19) 0.075(15) 0.031(10) 0.000 -0.003(11) 0.000
 C14 0.049(11) 0.066(13) 0.051(11) 0.000 0.020(9) 0.000
 C17 0.047(7) 0.049(7) 0.042(7) 0.004(6) -0.001(6) -0.002(6)

_geom_special_details
;
 All esds (except the esd in the dihedral angle between two l.s. planes)
 are estimated using the full covariance matrix.  The cell esds are taken
 into account individually in the estimation of esds in distances, angles
 and torsion angles; correlations between esds in cell parameters are only
 used when they are defined by crystal symmetry.  An approximate (isotropic)
 treatment of cell esds is used for estimating esds involving l.s. planes.
;
loop_
  _geom_bond_atom_site_label_1
  _geom_bond_atom_site_label_2
  _geom_bond_distance
  _geom_bond_site_symmetry_2
  _geom_bond_publ_flag
 Eu1 O1 2.548(7) 5_665 ?
 Eu1 O1 2.548(7) 2_655 ?
 Eu1 O1 2.548(7) . ?
 Eu1 O1 2.548(7) 6_565 ?
 Eu1 O4 2.565(11) 5_665 ?
 Eu1 O4 2.565(11) . ?
 Eu1 O6 2.600(11) 5_665 ?
 Eu1 O6 2.600(11) . ?
 Eu1 O8 2.588(8) . ?
 Eu1 O8 2.588(8) 2_655 ?
 Eu1 O8 2.588(8) 5_665 ?
 Eu1 O8 2.588(8) 6_565 ?
 K1 O5 2.690(12) 7_665 ?
 K1 O5 2.690(12) 3_545 ?
 K1 O11 2.801(16) 5_765 ?
 K1 O11 2.801(16) . ?
 K1 O14 2.928(10) . ?
 K1 O14 2.928(10) 6_565 ?
 K1 O14 2.928(10) 2_755 ?
 K1 O14 2.928(10) 5_765 ?
 O1 N8 1.276(10) . ?
 O4 N1 1.256(18) . ?
 O5 N8 1.179(18) . ?
 O6 N1 1.258(17) . ?
 O8 N17 1.273(10) . ?
 O10 N17 1.220(17) . ?
 O11 N1 1.205(19) . ?
 O14 N13 1.252(12) . ?
 O14 N13 1.252(12) 6_565 ?
 O17 N13 1.25(2) . ?
 O17 N13 1.25(2) 6_565 ?
 N13 N13 0.00000(4) 6_565 ?
 Eu2 O2 2.56(2) . ?
 Eu2 O2 2.56(2) 7_666 ?
 Eu2 O7 2.51(2) 7_666 ?
 Eu2 O7 2.51(2) . ?
 Eu2 O9 2.689(13) . ?
 Eu2 O9 2.689(13) 7_666 ?
 Eu2 O12 2.731(11) . ?
 Eu2 O12 2.731(11) 7_666 ?
 Eu2 O13 2.571(19) . ?
 Eu2 O13 2.571(19) 7_666 ?
 Eu2 O16 2.732(11) 7_666 ?
 Eu2 O16 2.732(11) . ?
 K2 O2 2.56(2) . ?
 K2 O2 2.56(2) 7_666 ?
 K2 O7 2.51(2) . ?
 K2 O7 2.51(2) 7_666 ?
 K2 O9 2.689(13) 7_666 ?
 K2 O9 2.689(13) . ?
 K2 O12 2.731(11) 7_666 ?
 K2 O12 2.731(11) . ?
 K2 O13 2.571(19) . ?
 K2 O13 2.571(19) 7_666 ?
 K2 O16 2.732(11) 7_666 ?
 K2 O16 2.732(11) . ?
 O2 N2 1.292(10) . ?
 O3 N3 1.228(18) . ?
 O7 O15 1.22(2) . ?
 O7 N15 1.22(2) . ?
 O9 N2 1.279(10) . ?
 O9 N2 1.30(3) 2_756 ?
 O12 N3 1.258(14) . ?
 O13 O15 1.15(2) . ?
 O13 N15 1.15(2) . ?
 O15 O15 1.22(3) 6_565 ?
 O16 N3 1.253(15) . ?
 N2 N2 1.18(4) 2_756 ?
 N4 C3 1.50(2) . ?
 N4 C10 1.57(2) . ?
 N4 C11 1.515(15) 6_565 ?
 N4 C11 1.515(15) . ?
 N10 C7 1.463(17) . ?
 N10 C11 1.444(17) . ?
 N10 C15 1.471(15) . ?
 N12 C7 1.471(15) 6_565 ?
 N12 C7 1.471(15) . ?
 N12 C10 1.44(2) . ?
 C3 H3A 0.9600 . ?
 C3 H3B 0.9600 . ?
 C3 H3C 0.9602 . ?
 C7 H7A 0.9700 . ?
 C7 H7B 0.9700 . ?
 C10 H10A 0.9700 . ?
 C10 H10B 0.9700 . ?
 C11 H11A 0.9700 . ?
 C11 H11B 0.9700 . ?
 C15 H15A 0.9700 . ?
 C15 H15B 0.9700 . ?
 N5 C1 1.495(15) . ?
 N5 C4 1.434(18) . ?
 N5 C6 1.465(17) . ?
 N7 C6 1.468(17) . ?
 N7 C12 1.433(17) . ?
 N7 C13 1.494(17) . ?
 N9 C2 1.489(17) . ?
 N9 C4 1.541(16) . ?
 N9 C12 1.511(15) . ?
 N9 C16 1.550(15) . ?
 N11 C1 1.461(17) . ?
 N11 C13 1.477(16) . ?
 N11 C16 1.424(16) . ?
 C1 H1A 0.9700 . ?
 C1 H1B 0.9700 . ?
 C2 H2A 0.9600 . ?
 C2 H2B 0.9600 . ?
 C2 H2C 0.9600 . ?
 C4 H4A 0.9700 . ?
 C4 H4B 0.9700 . ?
 C6 H6A 0.9700 . ?
 C6 H6B 0.9700 . ?
 C12 H12A 0.9700 . ?
 C12 H12B 0.9700 . ?
 C13 H13A 0.9700 . ?
 C13 H13B 0.9700 . ?
 C16 H16A 0.9700 . ?
 C16 H16B 0.9700 . ?
 N6 C5 1.538(15) . ?
 N6 C5 1.538(15) 6_565 ?
 N6 C8 1.50(2) . ?
 N6 C9 1.47(2) . ?
 N14 C8 1.43(2) . ?
 N14 C17 1.474(15) . ?
 N14 C17 1.474(15) 6_565 ?
 N16 C5 1.456(17) . ?
 N16 C14 1.460(16) . ?
 N16 C17 1.477(16) . ?
 C5 H5A 0.9700 . ?
 C5 H5B 0.9700 . ?
 C8 H8A 0.9700 . ?
 C8 H8B 0.9700 . ?
 C9 H9A 0.9600 . ?
 C9 H9B 0.9600 . ?
 C9 H9C 0.9600 . ?
 C14 H14A 0.9700 . ?
 C14 H14B 0.9700 . ?
 C17 H17A 0.9700 . ?
 C17 H17B 0.9700 . ?

loop_
  _geom_angle_atom_site_label_1
  _geom_angle_atom_site_label_2
  _geom_angle_atom_site_label_3
  _geom_angle
  _geom_angle_site_symmetry_1
  _geom_angle_site_symmetry_3
  _geom_angle_publ_flag
 O1 Eu1 O1 49.4(4) 5_665 6_565 ?
 O1 Eu1 O1 180.0(3) 6_565 2_655 ?
 O1 Eu1 O1 130.6(4) 5_665 2_655 ?
 O1 Eu1 O1 130.6(4) 6_565 . ?
 O1 Eu1 O1 180.00(13) 5_665 . ?
 O1 Eu1 O1 49.4(4) 2_655 . ?
 O1 Eu1 O4 113.55(18) 5_665 . ?
 O1 Eu1 O4 66.45(18) 2_655 5_665 ?
 O1 Eu1 O4 113.55(18) 6_565 5_665 ?
 O1 Eu1 O4 66.45(18) 6_565 . ?
 O1 Eu1 O4 66.45(18) 5_665 5_665 ?
 O1 Eu1 O4 113.55(18) . 5_665 ?
 O1 Eu1 O4 66.45(18) . . ?
 O1 Eu1 O4 113.55(18) 2_655 . ?
 O1 Eu1 O6 110.86(18) 6_565 5_665 ?
 O1 Eu1 O6 110.86(18) 5_665 . ?
 O1 Eu1 O6 69.14(18) 2_655 5_665 ?
 O1 Eu1 O6 110.86(18) 2_655 . ?
 O1 Eu1 O6 69.14(18) 6_565 . ?
 O1 Eu1 O6 69.14(18) 5_665 5_665 ?
 O1 Eu1 O6 110.86(18) . 5_665 ?
 O1 Eu1 O6 69.14(18) . . ?
 O1 Eu1 O8 69.1(2) 5_665 2_655 ?
 O1 Eu1 O8 69.1(2) 6_565 . ?
 O1 Eu1 O8 66.1(2) . 5_665 ?
 O1 Eu1 O8 113.9(2) 5_665 5_665 ?
 O1 Eu1 O8 110.9(2) 2_655 . ?
 O1 Eu1 O8 69.1(2) . 6_565 ?
 O1 Eu1 O8 113.9(2) 2_655 2_655 ?
 O1 Eu1 O8 66.1(2) 6_565 2_655 ?
 O1 Eu1 O8 66.1(2) 2_655 6_565 ?
 O1 Eu1 O8 113.9(2) 6_565 6_565 ?
 O1 Eu1 O8 113.9(2) . . ?
 O1 Eu1 O8 110.9(2) . 2_655 ?
 O1 Eu1 O8 110.9(2) 5_665 6_565 ?
 O1 Eu1 O8 69.1(2) 2_655 5_665 ?
 O1 Eu1 O8 110.9(2) 6_565 5_665 ?
 O1 Eu1 O8 66.1(2) 5_665 . ?
 O4 Eu1 O4 180.0 5_665 . ?
 O4 Eu1 O6 131.4(4) . 5_665 ?
 O4 Eu1 O6 48.6(4) . . ?
 O4 Eu1 O6 48.6(4) 5_665 5_665 ?
 O4 Eu1 O6 131.4(4) 5_665 . ?
 O4 Eu1 O8 108.6(3) 5_665 5_665 ?
 O4 Eu1 O8 108.6(3) . . ?
 O4 Eu1 O8 71.4(3) 5_665 6_565 ?
 O4 Eu1 O8 71.4(3) . 5_665 ?
 O4 Eu1 O8 108.6(3) 5_665 2_655 ?
 O4 Eu1 O8 108.6(3) . 6_565 ?
 O4 Eu1 O8 71.4(3) 5_665 . ?
 O4 Eu1 O8 71.4(3) . 2_655 ?
 O6 Eu1 O6 180.0 . 5_665 ?
 O8 Eu1 O6 64.8(3) 6_565 . ?
 O8 Eu1 O6 64.8(3) . . ?
 O8 Eu1 O6 115.2(3) 2_655 . ?
 O8 Eu1 O6 115.2(3) 5_665 . ?
 O8 Eu1 O6 64.8(3) 2_655 5_665 ?
 O8 Eu1 O6 64.8(3) 5_665 5_665 ?
 O8 Eu1 O6 115.2(3) . 5_665 ?
 O8 Eu1 O6 115.2(3) 6_565 5_665 ?
 O8 Eu1 O8 180.0 5_665 . ?
 O8 Eu1 O8 49.6(3) 5_665 2_655 ?
 O8 Eu1 O8 49.6(3) 6_565 . ?
 O8 Eu1 O8 180.0(3) 6_565 2_655 ?
 O8 Eu1 O8 130.4(3) 5_665 6_565 ?
 O8 Eu1 O8 130.4(3) 2_655 . ?
 O5 K1 O5 180.0 7_665 3_545 ?
 O5 K1 O11 90.000(1) 3_545 5_765 ?
 O5 K1 O11 90.000(1) 7_665 . ?
 O5 K1 O11 90.000(1) 3_545 . ?
 O5 K1 O11 90.000(1) 7_665 5_765 ?
 O5 K1 O14 68.3(2) 3_545 5_765 ?
 O5 K1 O14 68.3(2) 7_665 2_755 ?
 O5 K1 O14 68.3(2) 3_545 6_565 ?
 O5 K1 O14 68.3(2) 7_665 . ?
 O5 K1 O14 111.7(2) 3_545 2_755 ?
 O5 K1 O14 111.7(2) 7_665 6_565 ?
 O5 K1 O14 111.7(2) 3_545 . ?
 O5 K1 O14 111.7(2) 7_665 5_765 ?
 O11 K1 O11 180.0 5_765 . ?
 O11 K1 O14 107.3(4) 5_765 . ?
 O11 K1 O14 107.3(4) . 2_755 ?
 O11 K1 O14 72.7(4) 5_765 5_765 ?
 O11 K1 O14 107.3(4) 5_765 6_565 ?
 O11 K1 O14 72.7(4) . . ?
 O11 K1 O14 72.7(4) . 6_565 ?
 O11 K1 O14 107.3(4) . 5_765 ?
 O11 K1 O14 72.7(4) 5_765 2_755 ?
 O14 K1 O14 43.4(4) 5_765 2_755 ?
 O14 K1 O14 180.0 5_765 . ?
 O14 K1 O14 43.4(4) 6_565 . ?
 O14 K1 O14 136.6(4) 5_765 6_565 ?
 O14 K1 O14 136.6(4) 2_755 . ?
 O14 K1 O14 180.0(4) 6_565 2_755 ?
 N8 O1 Eu1 98.7(6) . . ?
 N1 O4 Eu1 98.8(8) . . ?
 N8 O5 K1 180.0 . 3_455 ?
 N1 O6 Eu1 97.1(9) . . ?
 N17 O8 Eu1 96.4(6) . . ?
 N1 O11 K1 161.8(13) . . ?
 N13 O14 K1 95.0(8) 6_565 . ?
 N13 O14 K1 95.0(8) . . ?
 N13 O14 N13 0.0(18) 6_565 . ?
 N13 O17 N13 0.0(9) 6_565 . ?
 O4 N1 Eu1 56.9(7) . . ?
 O4 N1 O6 115.5(12) . . ?
 O6 N1 Eu1 58.5(7) . . ?
 O11 N1 Eu1 178.4(13) . . ?
 O11 N1 O4 121.5(14) . . ?
 O11 N1 O6 123.0(16) . . ?
 O1 N8 Eu1 56.6(6) 2_655 . ?
 O1 N8 Eu1 56.6(6) . . ?
 O1 N8 O1 113.2(11) . 2_655 ?
 O5 N8 Eu1 180.0 . . ?
 O5 N8 O1 123.4(6) . 2_655 ?
 O5 N8 O1 123.4(6) . . ?
 O14 N13 O14 119.5(15) 6_565 . ?
 O14 N13 O17 120.2(8) . . ?
 O14 N13 O17 120.2(8) 6_565 . ?
 N13 N13 O14 0(10) 6_565 6_565 ?
 N13 N13 O14 0(10) 6_565 . ?
 N13 N13 O17 0(10) 6_565 . ?
 O8 N17 Eu1 58.7(6) . . ?
 O8 N17 Eu1 58.7(6) 6_565 . ?
 O8 N17 O8 116.9(12) . 6_565 ?
 O10 N17 Eu1 168.9(11) . . ?
 O10 N17 O8 121.5(6) . . ?
 O10 N17 O8 121.5(6) . 6_565 ?
 O2 Eu2 O2 180.0 7_666 . ?
 O2 Eu2 O9 47.6(5) 7_666 7_666 ?
 O2 Eu2 O9 132.4(5) 7_666 . ?
 O2 Eu2 O9 47.6(5) . . ?
 O2 Eu2 O9 132.4(5) . 7_666 ?
 O2 Eu2 O12 69.5(5) 7_666 . ?
 O2 Eu2 O12 110.5(5) 7_666 7_666 ?
 O2 Eu2 O12 69.5(5) . 7_666 ?
 O2 Eu2 O12 110.5(5) . . ?
 O2 Eu2 O13 66.1(6) 7_666 . ?
 O2 Eu2 O13 66.1(6) . 7_666 ?
 O2 Eu2 O13 113.9(6) . . ?
 O2 Eu2 O13 113.9(6) 7_666 7_666 ?
 O2 Eu2 O16 110.8(5) 7_666 7_666 ?
 O2 Eu2 O16 69.2(5) . 7_666 ?
 O2 Eu2 O16 69.2(5) 7_666 . ?
 O2 Eu2 O16 110.8(5) . . ?
 O7 Eu2 O2 113.0(7) 7_666 . ?
 O7 Eu2 O2 67.0(7) 7_666 7_666 ?
 O7 Eu2 O2 67.0(7) . . ?
 O7 Eu2 O2 113.0(7) . 7_666 ?
 O7 Eu2 O7 180.0 7_666 . ?
 O7 Eu2 O9 111.4(6) 7_666 . ?
 O7 Eu2 O9 68.6(6) 7_666 7_666 ?
 O7 Eu2 O9 111.4(6) . 7_666 ?
 O7 Eu2 O9 68.6(6) . . ?
 O7 Eu2 O12 114.1(5) 7_666 7_666 ?
 O7 Eu2 O12 114.1(5) . . ?
 O7 Eu2 O12 65.9(5) 7_666 . ?
 O7 Eu2 O12 65.9(5) . 7_666 ?
 O7 Eu2 O13 130.7(8) . 7_666 ?
 O7 Eu2 O13 49.3(8) . . ?
 O7 Eu2 O13 49.3(8) 7_666 7_666 ?
 O7 Eu2 O13 130.7(8) 7_666 . ?
 O7 Eu2 O16 108.0(6) 7_666 . ?
 O7 Eu2 O16 108.0(6) . 7_666 ?
 O7 Eu2 O16 72.0(6) . . ?
 O7 Eu2 O16 72.0(6) 7_666 7_666 ?
 O9 Eu2 O9 180.0 7_666 . ?
 O9 Eu2 O12 67.6(3) 7_666 7_666 ?
 O9 Eu2 O12 112.4(3) 7_666 . ?
 O9 Eu2 O12 112.4(3) . 7_666 ?
 O9 Eu2 O12 67.6(3) . . ?
 O9 Eu2 O16 113.3(4) 7_666 . ?
 O9 Eu2 O16 66.7(4) 7_666 7_666 ?
 O9 Eu2 O16 66.7(4) . . ?
 O9 Eu2 O16 113.3(4) . 7_666 ?
 O12 Eu2 O12 180.0(4) . 7_666 ?
 O12 Eu2 O16 133.7(3) . 7_666 ?
 O12 Eu2 O16 133.7(3) 7_666 . ?
 O12 Eu2 O16 46.3(3) . . ?
 O12 Eu2 O16 46.3(3) 7_666 7_666 ?
 O13 Eu2 O9 69.2(6) . 7_666 ?
 O13 Eu2 O9 69.2(6) 7_666 . ?
 O13 Eu2 O9 110.8(6) 7_666 7_666 ?
 O13 Eu2 O9 110.8(6) . . ?
 O13 Eu2 O12 70.5(5) . 7_666 ?
 O13 Eu2 O12 109.5(5) 7_666 7_666 ?
 O13 Eu2 O12 109.5(5) . . ?
 O13 Eu2 O12 70.5(5) 7_666 . ?
 O13 Eu2 O13 180.0 7_666 . ?
 O13 Eu2 O16 112.2(5) . 7_666 ?
 O13 Eu2 O16 67.8(5) 7_666 7_666 ?
 O13 Eu2 O16 112.2(5) 7_666 . ?
 O13 Eu2 O16 67.8(5) . . ?
 O16 Eu2 O16 180.0 7_666 . ?
 O2 K2 O2 180.0 7_666 . ?
 O2 K2 O9 47.6(5) 7_666 7_666 ?
 O2 K2 O9 47.6(5) . . ?
 O2 K2 O9 132.4(5) 7_666 . ?
 O2 K2 O9 132.4(5) . 7_666 ?
 O2 K2 O12 69.5(5) 7_666 . ?
 O2 K2 O12 69.5(5) . 7_666 ?
 O2 K2 O12 110.5(5) . . ?
 O2 K2 O12 110.5(5) 7_666 7_666 ?
 O2 K2 O13 66.1(6) . 7_666 ?
 O2 K2 O13 113.9(6) 7_666 7_666 ?
 O2 K2 O13 113.9(6) . . ?
 O2 K2 O13 66.1(6) 7_666 . ?
 O2 K2 O16 110.8(5) . . ?
 O2 K2 O16 69.2(5) . 7_666 ?
 O2 K2 O16 69.2(5) 7_666 . ?
 O2 K2 O16 110.8(5) 7_666 7_666 ?
 O7 K2 O2 67.0(7) . . ?
 O7 K2 O2 113.0(7) . 7_666 ?
 O7 K2 O2 67.0(7) 7_666 7_666 ?
 O7 K2 O2 113.0(7) 7_666 . ?
 O7 K2 O7 180.0 7_666 . ?
 O7 K2 O9 68.6(6) 7_666 7_666 ?
 O7 K2 O9 111.4(6) . 7_666 ?
 O7 K2 O9 68.6(6) . . ?
 O7 K2 O9 111.4(6) 7_666 . ?
 O7 K2 O12 65.9(5) 7_666 . ?
 O7 K2 O12 65.9(5) . 7_666 ?
 O7 K2 O12 114.1(5) . . ?
 O7 K2 O12 114.1(5) 7_666 7_666 ?
 O7 K2 O13 49.3(8) . . ?
 O7 K2 O13 49.3(8) 7_666 7_666 ?
 O7 K2 O13 130.7(8) . 7_666 ?
 O7 K2 O13 130.7(8) 7_666 . ?
 O7 K2 O16 72.0(6) . . ?
 O7 K2 O16 108.0(6) 7_666 . ?
 O7 K2 O16 108.0(6) . 7_666 ?
 O7 K2 O16 72.0(6) 7_666 7_666 ?
 O9 K2 O9 180.0 7_666 . ?
 O9 K2 O12 67.6(3) 7_666 7_666 ?
 O9 K2 O12 112.4(3) . 7_666 ?
 O9 K2 O12 112.4(3) 7_666 . ?
 O9 K2 O12 67.6(3) . . ?
 O9 K2 O16 66.7(4) 7_666 7_666 ?
 O9 K2 O16 113.3(4) . 7_666 ?
 O9 K2 O16 66.7(4) . . ?
 O9 K2 O16 113.3(4) 7_666 . ?
 O12 K2 O12 180.0(4) . 7_666 ?
 O12 K2 O16 46.3(3) 7_666 7_666 ?
 O12 K2 O16 133.7(3) 7_666 . ?
 O12 K2 O16 133.7(3) . 7_666 ?
 O12 K2 O16 46.3(3) . . ?
 O13 K2 O9 110.8(6) 7_666 7_666 ?
 O13 K2 O9 69.2(6) 7_666 . ?
 O13 K2 O9 110.8(6) . . ?
 O13 K2 O9 69.2(6) . 7_666 ?
 O13 K2 O12 70.5(5) 7_666 . ?
 O13 K2 O12 70.5(5) . 7_666 ?
 O13 K2 O12 109.5(5) . . ?
 O13 K2 O12 109.5(5) 7_666 7_666 ?
 O13 K2 O13 180.0 7_666 . ?
 O13 K2 O16 112.2(5) 7_666 . ?
 O13 K2 O16 67.8(5) . . ?
 O13 K2 O16 112.2(5) . 7_666 ?
 O13 K2 O16 67.8(5) 7_666 7_666 ?
 O16 K2 O16 180.0 7_666 . ?
 N2 O2 Eu2 103.7(14) . . ?
 N2 O2 K2 103.7(14) . . ?
 N2 O9 Eu2 97.6(11) . . ?
 N2 O9 Eu2 151.9(13) 2_756 . ?
 N2 O9 K2 151.9(13) 2_756 . ?
 N2 O9 K2 97.6(11) . . ?
 N2 O9 N2 54.3(16) . 2_756 ?
 N3 O12 Eu2 96.6(8) . . ?
 N3 O12 K2 96.6(8) . . ?
 O13 O15 O7 126.9(19) . . ?
 O13 O15 O15 116.5(12) . 6_565 ?
 O15 O15 O7 116.2(12) 6_565 . ?
 N3 O16 Eu2 96.7(8) . . ?
 N3 O16 K2 96.7(8) . . ?
 O2 N2 Eu2 52.7(12) . . ?
 O2 N2 K2 52.7(12) . . ?
 O2 N2 O9 123.2(19) . 2_756 ?
 O9 N2 Eu2 175.8(14) 2_756 . ?
 O9 N2 Eu2 58.4(10) . . ?
 O9 N2 K2 175.8(14) 2_756 . ?
 O9 N2 K2 58.4(10) . . ?
 O9 N2 O2 111.1(18) . . ?
 O9 N2 O9 125.7(16) . 2_756 ?
 N2 N2 Eu2 122.3(18) 2_756 . ?
 N2 N2 K2 122.3(18) 2_756 . ?
 N2 N2 O2 175(3) 2_756 . ?
 N2 N2 O9 63.9(15) 2_756 . ?
 N2 N2 O9 61.9(15) 2_756 2_756 ?
 O3 N3 Eu2 162.7(11) . . ?
 O3 N3 K2 162.7(11) . . ?
 O3 N3 O12 120.4(12) . . ?
 O3 N3 O16 121.8(12) . . ?
 O12 N3 Eu2 59.9(7) . . ?
 O12 N3 K2 59.9(7) . . ?
 O16 N3 Eu2 59.9(7) . . ?
 O16 N3 K2 59.9(7) . . ?
 O16 N3 O12 117.7(13) . . ?
 O13 N15 O7 126.9(19) . . ?
 C3 N4 C10 109.4(14) . . ?
 C3 N4 C11 111.9(9) . 6_565 ?
 C3 N4 C11 111.9(9) . . ?
 C11 N4 C10 106.2(9) 6_565 . ?
 C11 N4 C10 106.2(9) . . ?
 C11 N4 C11 111.0(14) . 6_565 ?
 C7 N10 C15 106.6(12) . . ?
 C11 N10 C7 107.6(10) . . ?
 C11 N10 C15 111.1(12) . . ?
 C7 N12 C7 108.6(14) . 6_565 ?
 C10 N12 C7 109.0(9) . . ?
 C10 N12 C7 109.0(9) . 6_565 ?
 N4 C3 H3A 109.8 . . ?
 N4 C3 H3B 109.5 . . ?
 N4 C3 H3C 109.1 . . ?
 H3A C3 H3B 109.5 . . ?
 H3A C3 H3C 109.5 . . ?
 H3B C3 H3C 109.5 . . ?
 N10 C7 N12 112.7(11) . . ?
 N10 C7 H7A 109.0 . . ?
 N10 C7 H7B 109.0 . . ?
 N12 C7 H7A 109.0 . . ?
 N12 C7 H7B 109.0 . . ?
 H7A C7 H7B 107.8 . . ?
 N4 C10 H10A 109.8 . . ?
 N4 C10 H10B 109.8 . . ?
 N12 C10 N4 109.3(14) . . ?
 N12 C10 H10A 109.8 . . ?
 N12 C10 H10B 109.8 . . ?
 H10A C10 H10B 108.3 . . ?
 N4 C11 H11A 109.5 . . ?
 N4 C11 H11B 109.5 . . ?
 N10 C11 N4 110.9(11) . . ?
 N10 C11 H11A 109.5 . . ?
 N10 C11 H11B 109.5 . . ?
 H11A C11 H11B 108.1 . . ?
 N10 C15 N10 113.0(15) 6_565 . ?
 N10 C15 H15A 109.0 . . ?
 N10 C15 H15A 109.0 6_565 . ?
 N10 C15 H15B 109.0 . . ?
 N10 C15 H15B 109.0 6_565 . ?
 H15A C15 H15B 107.8 . . ?
 C4 N5 C1 109.2(9) . . ?
 C4 N5 C6 110.4(10) . . ?
 C6 N5 C1 108.4(11) . . ?
 C6 N7 C13 107.5(11) . . ?
 C12 N7 C6 110.7(11) . . ?
 C12 N7 C13 108.7(10) . . ?
 C2 N9 C4 110.4(11) . . ?
 C2 N9 C12 111.7(10) . . ?
 C2 N9 C16 111.3(9) . . ?
 C4 N9 C16 106.3(9) . . ?
 C12 N9 C4 108.9(9) . . ?
 C12 N9 C16 108.0(10) . . ?
 C1 N11 C13 109.6(10) . . ?
 C16 N11 C1 109.6(10) . . ?
 C16 N11 C13 109.4(10) . . ?
 N5 C1 H1A 109.6 . . ?
 N5 C1 H1B 109.6 . . ?
 N11 C1 N5 110.4(10) . . ?
 N11 C1 H1A 109.6 . . ?
 N11 C1 H1B 109.6 . . ?
 H1A C1 H1B 108.1 . . ?
 N9 C2 H2A 109.5 . . ?
 N9 C2 H2B 109.5 . . ?
 N9 C2 H2C 109.5 . . ?
 H2A C2 H2B 109.5 . . ?
 H2A C2 H2C 109.5 . . ?
 H2B C2 H2C 109.5 . . ?
 N5 C4 N9 109.7(10) . . ?
 N5 C4 H4A 109.7 . . ?
 N5 C4 H4B 109.7 . . ?
 N9 C4 H4A 109.7 . . ?
 N9 C4 H4B 109.7 . . ?
 H4A C4 H4B 108.2 . . ?
 N5 C6 N7 111.8(10) . . ?
 N5 C6 H6A 109.3 . . ?
 N5 C6 H6B 109.3 . . ?
 N7 C6 H6A 109.3 . . ?
 N7 C6 H6B 109.3 . . ?
 H6A C6 H6B 107.9 . . ?
 N7 C12 N9 110.5(10) . . ?
 N7 C12 H12A 109.6 . . ?
 N7 C12 H12B 109.6 . . ?
 N9 C12 H12A 109.6 . . ?
 N9 C12 H12B 109.6 . . ?
 H12A C12 H12B 108.1 . . ?
 N7 C13 H13A 109.5 . . ?
 N7 C13 H13B 109.5 . . ?
 N11 C13 N7 110.9(10) . . ?
 N11 C13 H13A 109.5 . . ?
 N11 C13 H13B 109.5 . . ?
 H13A C13 H13B 108.0 . . ?
 N9 C16 H16A 109.6 . . ?
 N9 C16 H16B 109.6 . . ?
 N11 C16 N9 110.3(9) . . ?
 N11 C16 H16A 109.6 . . ?
 N11 C16 H16B 109.6 . . ?
 H16A C16 H16B 108.1 . . ?
 C5 N6 C5 106.7(14) 6_565 . ?
 C8 N6 C5 108.1(9) . 6_565 ?
 C8 N6 C5 108.1(9) . . ?
 C9 N6 C5 110.9(9) . . ?
 C9 N6 C5 110.9(9) . 6_565 ?
 C9 N6 C8 112.0(16) . . ?
 C8 N14 C17 109.9(9) . . ?
 C8 N14 C17 109.9(9) . 6_565 ?
 C17 N14 C17 107.6(14) . 6_565 ?
 C5 N16 C14 107.7(12) . . ?
 C5 N16 C17 110.1(10) . . ?
 C14 N16 C17 110.1(13) . . ?
 N6 C5 H5A 109.8 . . ?
 N6 C5 H5B 109.8 . . ?
 N16 C5 N6 109.5(10) . . ?
 N16 C5 H5A 109.8 . . ?
 N16 C5 H5B 109.8 . . ?
 H5A C5 H5B 108.2 . . ?
 N6 C8 H8A 109.2 . . ?
 N6 C8 H8B 109.2 . . ?
 N14 C8 N6 112.0(13) . . ?
 N14 C8 H8A 109.2 . . ?
 N14 C8 H8B 109.2 . . ?
 H8A C8 H8B 107.9 . . ?
 N6 C9 H9A 109.7 . . ?
 N6 C9 H9B 109.2 . . ?
 N6 C9 H9C 109.5 . . ?
 H9A C9 H9B 109.5 . . ?
 H9A C9 H9C 109.5 . . ?
 H9B C9 H9C 109.5 . . ?
 N16 C14 N16 111.5(15) . 6_565 ?
 N16 C14 H14A 109.3 . . ?
 N16 C14 H14A 109.3 6_565 . ?
 N16 C14 H14B 109.3 . . ?
 N16 C14 H14B 109.3 6_565 . ?
 H14A C14 H14B 108.0 . . ?
 N14 C17 N16 110.6(11) . . ?
 N14 C17 H17A 109.5 . . ?
 N14 C17 H17B 109.5 . . ?
 N16 C17 H17A 109.5 . . ?
 N16 C17 H17B 109.5 . . ?
 H17A C17 H17B 108.1 . . ?

loop_
  _geom_torsion_atom_site_label_1
  _geom_torsion_atom_site_label_2
  _geom_torsion_atom_site_label_3
  _geom_torsion_atom_site_label_4
  _geom_torsion
  _geom_torsion_site_symmetry_1
  _geom_torsion_site_symmetry_2
  _geom_torsion_site_symmetry_3
  _geom_torsion_site_symmetry_4
  _geom_torsion_publ_flag
 Eu1 O1 N8 O1 -0.002(1) . . . 2_655 ?
 Eu1 O1 N8 O5 180.000(0) . . . . ?
 Eu1 O4 N1 O6 0.000(0) . . . . ?
 Eu1 O4 N1 O11 180.0 . . . . ?
 Eu1 O6 N1 O4 0.000(0) . . . . ?
 Eu1 O6 N1 O11 180.0 . . . . ?
 Eu1 O8 N17 O8 -8.7(14) . . . 6_565 ?
 Eu1 O8 N17 O10 167.0(13) . . . . ?
 K1 O11 N1 O4 180.000(1) . . . . ?
 K1 O11 N1 O6 0.000(1) . . . . ?
 K1 O14 N13 O14 27.6(19) . . . 6_565 ?
 K1 O14 N13 O17 -150.6(17) . . . . ?
 K1 O14 N13 N13 0.00(17) . . . 6_565 ?
 N13 O14 N13 O14 0(100) 6_565 . . 6_565 ?
 N13 O14 N13 O17 0(100) 6_565 . . . ?
 N13 O17 N13 O14 0(100) 6_565 . . . ?
 N13 O17 N13 O14 0(100) 6_565 . . 6_565 ?
 Eu2 O2 N2 O9 -179.3(18) . . . 2_756 ?
 Eu2 O2 N2 O9 -1(2) . . . . ?
 Eu2 O9 N2 O2 1(2) . . . . ?
 Eu2 O9 N2 O9 179(2) . . . 2_756 ?
 Eu2 O9 N2 N2 -178.1(9) . . . 2_756 ?
 Eu2 O12 N3 O3 -159.9(13) . . . . ?
 Eu2 O12 N3 O16 16.4(14) . . . . ?
 Eu2 O16 N3 O3 159.8(14) . . . . ?
 Eu2 O16 N3 O12 -16.4(14) . . . . ?
 K2 O2 N2 O9 -1(2) . . . . ?
 K2 O2 N2 O9 -179.3(18) . . . 2_756 ?
 K2 O9 N2 O2 1(2) . . . . ?
 K2 O9 N2 O9 179(2) . . . 2_756 ?
 K2 O9 N2 N2 -178.1(9) . . . 2_756 ?
 K2 O12 N3 O3 -159.9(13) . . . . ?
 K2 O12 N3 O16 16.4(14) . . . . ?
 K2 O16 N3 O3 159.8(14) . . . . ?
 K2 O16 N3 O12 -16.4(14) . . . . ?
 N2 O9 N2 Eu2 178.1(9) 2_756 . . . ?
 N2 O9 N2 K2 178.1(9) 2_756 . . . ?
 N2 O9 N2 O2 178.7(13) 2_756 . . . ?
 N2 O9 N2 O9 -3(3) 2_756 . . 2_756 ?
 C3 N4 C10 N12 180.000(2) . . . . ?
 C3 N4 C11 N10 180.0(12) . . . . ?
 C7 N10 C11 N4 61.6(13) . . . . ?
 C7 N10 C15 N10 -60.5(19) . . . 6_565 ?
 C7 N12 C7 N10 -57.2(17) 6_565 . . . ?
 C7 N12 C10 N4 -59.1(9) . . . . ?
 C7 N12 C10 N4 59.1(9) 6_565 . . . ?
 C10 N4 C11 N10 -60.8(13) . . . . ?
 C10 N12 C7 N10 61.3(14) . . . . ?
 C11 N4 C10 N12 59.1(8) . . . . ?
 C11 N4 C10 N12 -59.1(8) 6_565 . . . ?
 C11 N4 C11 N10 54.2(17) 6_565 . . . ?
 C11 N10 C7 N12 -61.1(14) . . . . ?
 C11 N10 C15 N10 56.5(19) . . . 6_565 ?
 C15 N10 C7 N12 58.1(15) . . . . ?
 C15 N10 C11 N4 -54.8(14) . . . . ?
 C1 N5 C4 N9 60.9(12) . . . . ?
 C1 N5 C6 N7 -60.4(14) . . . . ?
 C1 N11 C13 N7 59.1(14) . . . . ?
 C1 N11 C16 N9 -61.2(13) . . . . ?
 C2 N9 C4 N5 -179.9(10) . . . . ?
 C2 N9 C12 N7 -178.8(11) . . . . ?
 C2 N9 C16 N11 179.3(11) . . . . ?
 C4 N5 C1 N11 -61.6(13) . . . . ?
 C4 N5 C6 N7 59.2(14) . . . . ?
 C4 N9 C12 N7 -56.7(13) . . . . ?
 C4 N9 C16 N11 59.1(13) . . . . ?
 C6 N5 C1 N11 58.8(13) . . . . ?
 C6 N5 C4 N9 -58.2(12) . . . . ?
 C6 N7 C12 N9 57.4(13) . . . . ?
 C6 N7 C13 N11 -58.7(14) . . . . ?
 C12 N7 C6 N5 -58.4(14) . . . . ?
 C12 N7 C13 N11 61.2(14) . . . . ?
 C12 N9 C4 N5 57.1(11) . . . . ?
 C12 N9 C16 N11 -57.7(13) . . . . ?
 C13 N7 C6 N5 60.1(14) . . . . ?
 C13 N7 C12 N9 -60.4(13) . . . . ?
 C13 N11 C1 N5 -58.6(13) . . . . ?
 C13 N11 C16 N9 59.0(13) . . . . ?
 C16 N9 C4 N5 -59.0(11) . . . . ?
 C16 N9 C12 N7 58.4(12) . . . . ?
 C16 N11 C1 N5 61.5(13) . . . . ?
 C16 N11 C13 N7 -61.0(14) . . . . ?
 C5 N6 C5 N16 59.4(16) 6_565 . . . ?
 C5 N6 C8 N14 57.6(8) . . . . ?
 C5 N6 C8 N14 -57.6(8) 6_565 . . . ?
 C5 N16 C14 N16 64.2(19) . . . 6_565 ?
 C5 N16 C17 N14 -60.0(14) . . . . ?
 C8 N6 C5 N16 -56.7(14) . . . . ?
 C8 N14 C17 N16 59.3(14) . . . . ?
 C9 N6 C5 N16 -179.8(14) . . . . ?
 C9 N6 C8 N14 180.000(3) . . . . ?
 C14 N16 C5 N6 -61.4(15) . . . . ?
 C14 N16 C17 N14 58.7(14) . . . . ?
 C17 N14 C8 N6 59.1(9) 6_565 . . . ?
 C17 N14 C8 N6 -59.1(9) . . . . ?
 C17 N14 C17 N16 -60.4(16) 6_565 . . . ?
 C17 N16 C5 N6 58.8(14) . . . . ?
 C17 N16 C14 N16 -55.9(19) . . . 6_565 ?

_shelx_res_file
;
TITL mo_ate_euk_300k_0m_a_a.res in C2/m
    mo_ate_euk_300k_0m_a.res
    created by SHELXL-2019/3 at 20:16:00 on 17-Nov-2024
REM Old TITL mo_ATE_EuK_300K_0m_a in C2/m #12
REM SHELXT solution in C2/m: R1 0.184, Rweak 0.006, Alpha 0.059
REM <I/s> 0.000 for 0 systematic absences, Orientation as input
REM Formula found by SHELXT: Eu3 N116 O41
CELL 0.71073 13.9122 13.7738 26.1848 90 92.711 90
ZERR 4 0.0034 0.0031 0.0072 0 0.007 0
LATT 7
SYMM -X,+Y,-Z
SFAC C H Eu K N O
UNIT 112 240 4 4 96 96
EQIV $1 2-X,1-Y,-Z
EQIV $2 2-X,+Y,-Z
EQIV $3 +X,1-Y,+Z
EADP Eu2 K2
SIMU 0.01 0.02 2 Eu1 > N17
ISOR 0.001 0.002 K1
EADP N15 O15
DFIX 1.3 0.01 O9 N2 O2 N2
SIMU 0.01 0.02 2 Eu2 > N15
DELU 0.01 0.02 K1 O11
ISOR 0.005 0.01 O11
EXYZ Eu2 K2
EXYZ N15 O15

L.S. 20
PLAN  15
SIZE 0.1 0.1 0.11
TEMP 22.85
CONF
FREE K1 N13_$1
FREE K1 N13_$2
FREE K1 N13
FREE K1 N13_$3
list 4
MORE -1
BOND $H
fmap 2
acta
SHEL 999 0.84
REM <olex2.extras>
REM <HklSrc "%.\\mo_ATE_EuK_300K_0m_a.hkl">
REM </olex2.extras>

WGHT    0.138746  153.423416
FVAR       0.13306
EU1   3    0.500000    0.500000    0.000000    10.25000    0.01331    0.01059 =
         0.01206    0.00000    0.00067    0.00000
K1    4    1.000000    0.500000    0.000000    10.25000    0.13090    0.13098 =
         0.13087    0.00000    0.00665    0.00000
O1    6    0.575282    0.668089    0.009526    11.00000    0.03598    0.02764 =
         0.03906   -0.00160    0.00630   -0.01070
O4    6    0.663182    0.500000    0.049857    10.50000    0.02884    0.03932 =
         0.04463    0.00000   -0.00434    0.00000
O5    6    0.500000    0.804707    0.000000    10.50000    0.10163    0.01906 =
         0.10064    0.00000    0.01839    0.00000
O6    6    0.674914    0.500000   -0.030799    10.50000    0.02539    0.04154 =
         0.04619    0.00000   -0.00770    0.00000
O8    6    0.521311    0.421229   -0.088482    11.00000    0.04279    0.03323 =
         0.03470    0.00110    0.00689   -0.00019
O10   6    0.565730    0.500000   -0.155405    10.50000    0.06050    0.05679 =
         0.04124    0.00000    0.02360    0.00000
O11   6    0.803563    0.500000    0.019075    10.50000    0.05819    0.07346 =
         0.07010    0.00000   -0.01280    0.00000
O14   6    0.980717    0.578528    0.102919    11.00000    0.06997    0.06566 =
         0.04827    0.00121    0.01309   -0.01678
O17   6    0.900187    0.500000    0.158716    10.50000    0.06958    0.07293 =
         0.05029    0.00000    0.03248    0.00000
N1    5    0.717188    0.500000    0.012739    10.50000    0.01475    0.04345 =
         0.05145    0.00000   -0.01272    0.00000
N8    5    0.500000    0.719092    0.000000    10.50000    0.06439    0.01477 =
         0.05680    0.00000    0.02210    0.00000
N13   5    0.954439    0.500000    0.121880    10.50000    0.05949    0.06012 =
         0.04356    0.00000    0.01953    0.00000
N17   5    0.535121    0.500000   -0.112519    10.50000    0.03236    0.04433 =
         0.02698    0.00000    0.00644    0.00000
PART 1
EU2   3    0.750000    0.750000    0.500000    10.25000    0.03022    0.03523 =
         0.04164    0.00177    0.00306   -0.01379
PART 2
K2    4    0.750000    0.750000    0.500000    10.25000    0.03022    0.03523 =
         0.04164    0.00177    0.00306   -0.01379
PART 0
O2    6    0.910823    0.749544    0.551712    10.50000    0.06017    0.05400 =
         0.05876   -0.00899    0.00530   -0.02594
O3    6    0.830987    0.753361    0.342638    11.00000    0.12503    0.07229 =
         0.05024   -0.00682    0.01631   -0.00438
O7    6    0.821395    0.583180    0.510532    10.50000    0.06988    0.05429 =
         0.07134    0.00823    0.01110   -0.00990
O9    6    0.933603    0.745958    0.472226    11.00000    0.06406    0.07782 =
         0.08426    0.00583    0.01650    0.00140
O12   6    0.771102    0.829638    0.405676    11.00000    0.05184    0.06279 =
         0.06562   -0.00567    0.00796    0.00394
O13   6    0.672090    0.581395    0.490091    10.50000    0.06344    0.05300 =
         0.06127    0.00717    0.01505   -0.01940
PART 4
O15   6    0.745428    0.544116    0.497827    10.50000    0.07735    0.05674 =
         0.07445    0.00070    0.01374   -0.00686
PART 0
O16   6    0.770477    0.673631    0.404855    11.00000    0.07241    0.05186 =
         0.07862   -0.00351    0.00203   -0.00780
N2    5    0.974035    0.747729    0.517120    10.50000    0.05867    0.06107 =
         0.07112   -0.00567    0.01435   -0.01558
N3    5    0.790091    0.751739    0.383171    11.00000    0.05538    0.05251 =
         0.05551   -0.00975    0.00134    0.00172
PART 3
N15   5    0.745428    0.544116    0.497827    10.50000    0.07735    0.05674 =
         0.07445    0.00070    0.01374   -0.00686

PART 0
N4    5    0.495647    0.500000    0.374645    10.50000    0.03438    0.04457 =
         0.03648    0.00000    0.00493    0.00000
N10   5    0.579253    0.589027    0.309684    11.00000    0.03560    0.04543 =
         0.05096   -0.00355   -0.00050   -0.00934
N12   5    0.432222    0.500000    0.285529    10.50000    0.03655    0.05271 =
         0.03317    0.00000   -0.00179    0.00000
C3    1    0.465927    0.500000    0.429029    10.50000    0.04741    0.11715 =
         0.03511    0.00000    0.01692    0.00000
PART -1
AFIX   3
H3A   2    0.410397    0.459430    0.432129    10.50000   -1.50000
H3B   2    0.450897    0.565050    0.439119    10.50000   -1.50000
H3C   2    0.518007    0.475520    0.450709    10.50000   -1.50000
AFIX   0
PART 0
C7    1    0.491060    0.586689    0.276984    11.00000    0.05358    0.04848 =
         0.04704    0.01021    0.00473    0.00485
AFIX  23
H7A   2    0.507927    0.588327    0.241471    11.00000   -1.20000
H7B   2    0.453275    0.644201    0.283446    11.00000   -1.20000
AFIX   0
C10   1    0.403597    0.500000    0.337699    10.50000    0.02933    0.04888 =
         0.05603    0.00000   -0.01085    0.00000
AFIX  23
H10A  2    0.364999    0.442933    0.343911    10.50000   -1.20000
H10B  2    0.364999    0.557067    0.343911    10.50000   -1.20000
AFIX   0
C11   1    0.551485    0.590666    0.362111    11.00000    0.03861    0.05340 =
         0.05520   -0.00286   -0.00559   -0.00603
AFIX  23
H11A  2    0.512092    0.647461    0.367651    11.00000   -1.20000
H11B  2    0.608579    0.595113    0.384728    11.00000   -1.20000
AFIX   0
C15   1    0.632881    0.500000    0.298696    10.50000    0.03620    0.08315 =
         0.05595    0.00000    0.00716    0.00000
AFIX  23
H15A  2    0.648198    0.500000    0.262939    10.50000   -1.20000
H15B  2    0.693050    0.499999    0.318986    10.50000   -1.20000
AFIX   0

N5    5    0.821118    0.753550    0.212803    11.00000    0.04422    0.03776 =
         0.04403    0.00370   -0.00839   -0.00643
N7    5    0.675796    0.844396    0.189833    11.00000    0.04596    0.04878 =
         0.05576   -0.00446    0.00076    0.00757
N9    5    0.755596    0.753627    0.125007    11.00000    0.03242    0.03928 =
         0.03626   -0.00569    0.00035   -0.00507
N11   5    0.672798    0.666742    0.191287    11.00000    0.04213    0.04638 =
         0.03253    0.00215    0.00662   -0.00560
C1    1    0.761506    0.666218    0.223461    11.00000    0.05712    0.03920 =
         0.04529    0.00211    0.00511   -0.00848
AFIX  23
H1A   2    0.797890    0.607848    0.216845    11.00000   -1.20000
H1B   2    0.745927    0.665905    0.259179    11.00000   -1.20000
AFIX   0
C2    1    0.781393    0.751242    0.070486    11.00000    0.06285    0.07949 =
         0.03766   -0.00910    0.00919   -0.02592
AFIX 137
H2A   2    0.808335    0.812667    0.061382    11.00000   -1.50000
H2B   2    0.724725    0.738724    0.049154    11.00000   -1.50000
H2C   2    0.827752    0.700795    0.065765    11.00000   -1.50000
AFIX   0
C4    1    0.847122    0.751407    0.160479    11.00000    0.03547    0.03766 =
         0.05292    0.00045    0.00248   -0.00844
AFIX  23
H4A   2    0.883574    0.692943    0.154164    11.00000   -1.20000
H4B   2    0.887276    0.806969    0.153492    11.00000   -1.20000
AFIX   0
C6    1    0.764209    0.840494    0.222679    11.00000    0.05571    0.04938 =
         0.04198   -0.01189   -0.00642   -0.00612
AFIX  23
H6A   2    0.802674    0.897782    0.216759    11.00000   -1.20000
H6B   2    0.747504    0.840883    0.258227    11.00000   -1.20000
AFIX   0
C12   1    0.697869    0.843094    0.136923    11.00000    0.03782    0.04638 =
         0.04624    0.00663   -0.00290    0.00267
AFIX  23
H12A  2    0.734347    0.900736    0.129000    11.00000   -1.20000
H12B  2    0.638625    0.843668    0.115848    11.00000   -1.20000
AFIX   0
C13   1    0.617894    0.756168    0.200929    11.00000    0.03601    0.06529 =
         0.05396   -0.00994    0.01381   -0.00061
AFIX  23
H13A  2    0.600443    0.757423    0.236352    11.00000   -1.20000
H13B  2    0.559046    0.756398    0.179528    11.00000   -1.20000
AFIX   0
C16   1    0.695637    0.663391    0.138880    11.00000    0.04130    0.04513 =
         0.04866   -0.00497   -0.00098   -0.01461
AFIX  23
H16A  2    0.636751    0.661539    0.117533    11.00000   -1.20000
H16B  2    0.731950    0.604879    0.132475    11.00000   -1.20000
AFIX   0

N6    5    0.993295    0.500000    0.375492    10.50000    0.03886    0.05842 =
         0.03334    0.00000    0.00368    0.00000
N14   5    0.924520    0.500000    0.288586    10.50000    0.03414    0.04718 =
         0.04720    0.00000   -0.00517    0.00000
N16   5    1.073024    0.587622    0.308186    11.00000    0.03910    0.06361 =
         0.04857    0.00926    0.00785   -0.01251
C5    1    1.053211    0.589584    0.362269    11.00000    0.05776    0.04994 =
         0.04011   -0.01076    0.00165   -0.01582
AFIX  23
H5A   2    1.018156    0.648248    0.369985    11.00000   -1.20000
H5B   2    1.113241    0.589636    0.382679    11.00000   -1.20000
AFIX   0
C8    1    0.903554    0.500000    0.341389    10.50000    0.02561    0.04757 =
         0.04212    0.00000    0.00040    0.00000
AFIX  23
H8A   2    0.865531    0.443060    0.348677    10.50000   -1.20000
H8B   2    0.865531    0.556940    0.348677    10.50000   -1.20000
AFIX   0
C9    1    0.971644    0.500000    0.429978    10.50000    0.10244    0.07459 =
         0.03095    0.00000   -0.00307    0.00000
PART -1
AFIX   3
H9A   2    0.915173    0.538270    0.434938    10.50000   -1.50000
H9B   2    1.025193    0.527120    0.449568    10.50000   -1.50000
H9C   2    0.960813    0.434600    0.441008    10.50000   -1.50000
AFIX   0
PART 0
C14   1    1.128622    0.500000    0.298833    10.50000    0.04874    0.06638 =
         0.05128    0.00000    0.01955    0.00000
AFIX  23
H14A  2    1.186508    0.499998    0.320989    10.50000   -1.20000
H14B  2    1.147859    0.500002    0.263707    10.50000   -1.20000
AFIX   0
C17   1    0.981972    0.586388    0.276810    11.00000    0.04708    0.04947 =
         0.04184    0.00426   -0.00055   -0.00247
AFIX  23
H17A  2    0.945334    0.644558    0.283502    11.00000   -1.20000
H17B  2    0.995917    0.586031    0.240863    11.00000   -1.20000
AFIX   0
HKLF 4




REM  mo_ate_euk_300k_0m_a_a.res in C2/m
REM wR2 = 0.2744, GooF = S = 1.066, Restrained GooF = 1.074 for all data
REM R1 = 0.0970 for 3508 Fo > 4sig(Fo) and 0.1110 for all 4627 data
REM 404 parameters refined using 135 restraints

END

WGHT      0.2000      0.0000

REM Highest difference peak  2.107,  deepest hole -3.498,  1-sigma level  0.246
Q1    1   0.8070  0.6906  0.4991  11.00000  0.05    2.11
Q2    1   0.7988  0.7144  0.4821  11.00000  0.05    1.76
Q3    1   0.5000  0.5000  0.5000  10.25000  0.05    1.07
Q4    1   0.7993  0.6240  0.5225  11.00000  0.05    0.95
Q5    1   0.8012  0.5467  0.0083  11.00000  0.05    0.92
Q6    1   0.5585  0.5000 -0.0759  10.50000  0.05    0.91
Q7    1   0.6840  0.7043  0.4607  11.00000  0.05    0.87
Q8    1   0.3966  0.3844  0.4127  11.00000  0.05    0.86
Q9    1   0.8899  0.6028  0.4575  11.00000  0.05    0.82
Q10   1   0.8742  0.6855  0.4744  11.00000  0.05    0.80
Q11   1   0.8754  0.5000  0.5209  10.50000  0.05    0.78
Q12   1   0.2849  0.5000  0.4376  10.50000  0.05    0.77
Q13   1   0.9512  0.7604  0.5056  11.00000  0.05    0.75
Q14   1   0.7787  0.5000 -0.0666  10.50000  0.05    0.75
Q15   1   0.4217  0.5371  0.0113  11.00000  0.05    0.74
;
_shelx_res_checksum                82397
_shelx_hkl_file
;
  -2   0   0    1.57    1.42
   2   0   0    0.02    1.07
   4   0   0 4937.76  447.11
  -4   0   0 5608.75  463.57
   4   0   0 5286.28  196.51
   6   0   0   -0.45    2.35
  -6   0   0   -1.18    2.17
   6   0   0    0.39    3.14
  -8   0   0  201.56   14.71
   8   0   0  215.28   17.32
   8   0   0  223.26   15.76
  10   0   0    3.35    4.37
  10   0   0    2.34    5.25
 -10   0   0    5.48    4.61
  12   0   0  603.95   31.89
  12   0   0  574.17   35.94
 -12   0   0  624.92   31.37
  14   0   0    1.85    6.78
  14   0   0    4.78    5.96
 -14   0   0   -0.31    4.43
  16   0   0  138.65   16.73
  16   0   0  171.98   31.68
  18   0   0    9.81    7.67
  18   0   0    3.45    9.28
  -1  -1   0  226.98    9.62
   1   1   0  229.10   10.09
  -3  -1   0  114.97    8.45
   3   1   0  119.43    8.56
   3   1   0  120.27    8.73
  -5  -1   0  153.42   11.53
   5   1   0  139.41   11.54
   5   1   0  137.68   11.09
   7  -1   0   63.87    7.31
   7  -1   0   65.23    8.82
  -7   1   0   59.42    6.83
   9  -1   0   53.20    7.78
  -9  -1   0   32.99    9.84
   9  -1   0   75.81   14.75
  -9   1   0   57.43   10.49
   9   1   0   34.25   11.34
 -11  -1   0  101.06   12.86
  11   1   0  110.20   14.22
  11   1   0  110.98   15.46
 -13  -1   0   91.78   12.81
  13   1   0   77.40   18.91
  13   1   0   97.85   18.21
  15  -1   0   17.94    7.74
  15  -1   0    7.77    8.53
 -15  -1   0   34.78   12.41
  15   1   0   27.12   10.16
  15   1   0   37.43   14.50
  17  -1   0   31.89   14.62
  17  -1   0   37.02   11.27
  17   1   0   29.21   14.27
  17   1   0   23.10   10.49
   0  -2   0    0.19    1.42
   0  -2   0    0.16    1.01
   0  -2   0   -0.76    0.67
   0   2   0   -0.03    0.71
   0   2   0    0.69    0.83
   0   2   0    0.91    1.38
   2  -2   0 7985.49  168.46
  -2  -2   0 8008.27  509.66
   2  -2   0 7951.56  282.44
  -2  -2   0 7918.55  242.45
   2   2   0 8027.23  242.92
   2   2   0 7680.94  500.36
  -2   2   0 7893.32  256.48
  -2   2   0 7983.27  175.35
  -4  -2   0   -0.22    2.16
   4   2   0    1.27    2.48
   4   2   0    0.34    2.84
  -6  -2   0 1141.17   40.83
   6   2   0 1231.70   42.14
   6   2   0 1095.84   40.89
   8  -2   0    0.28    3.26
  -8  -2   0    3.10    4.33
   8   2   0   -1.48    2.58
   8   2   0    1.47    4.15
  10  -2   0  526.79   23.09
  10  -2   0  522.15   29.03
 -10  -2   0  443.74   28.19
 -10   2   0  538.84   22.15
  10   2   0  495.17   30.02
  10   2   0  500.86   31.81
  12  -2   0    1.62    3.27
  12  -2   0   -1.85    4.73
 -12  -2   0   -1.90    3.54
  12   2   0   -0.73    4.32
  12   2   0    1.93    6.59
  14  -2   0  206.14   16.34
 -14  -2   0  182.51   19.51
  14  -2   0  181.37   20.69
  14   2   0  214.28   24.16
  14   2   0  216.08   21.63
  16  -2   0    2.92    6.63
 -16  -2   0    0.76    4.47
  16   2   0    4.31    7.83
  16   2   0    3.32    6.39
 -18  -2   0   71.59   19.55
  18  -2   0   89.93   23.38
  18   2   0   83.99   25.61
  18   2   0   45.27   14.13
  -1  -3   0  191.21   11.38
  -1  -3   0  189.25    9.86
   1   3   0  176.76    8.52
   1   3   0  207.36   11.76
   1   3   0  193.61    9.30
  -3  -3   0   55.66    7.51
   3   3   0   59.77    7.75
   3   3   0   61.12    7.36
  -5  -3   0  737.65   31.76
   5   3   0  729.28   30.80
   5   3   0  775.79   32.37
  -7  -3   0  148.02   14.56
   7   3   0  107.15   13.15
   7   3   0  147.88   15.08
  -9  -3   0  105.72   19.58
   9   3   0   96.11   13.46
   9   3   0  114.98   20.19
  11  -3   0   30.85   10.15
 -11  -3   0   19.75    8.08
  11   3   0   19.22    9.91
  11   3   0   16.47    8.89
 -13  -3   0  107.95   21.30
  13   3   0   94.32   19.71
  13   3   0   94.34   22.28
  15  -3   0   30.06   12.56
 -15  -3   0    6.67    7.94
  15   3   0   17.40   11.51
  15   3   0   18.17   10.44
  17  -3   0   27.46   13.60
 -17  -3   0   29.90   13.74
  17   3   0   51.40   17.69
  17   3   0   55.65   18.44
   0  -4   0 6323.24  399.85
   0  -4   0 5821.51  386.28
   0   4   0 5724.75  178.49
   0   4   0 6088.83  186.81
  -2  -4   0   -0.89    2.60
   2  -4   0    0.76    1.80
  -2  -4   0   -0.36    2.01
  -2   4   0    0.26    1.65
   2   4   0   -1.24    2.35
   2   4   0    1.80    2.80
  -4  -4   0  410.84   22.89
   4   4   0  404.30   22.82
   4   4   0  391.53   20.73
  -6  -4   0    1.30    3.84
   6   4   0    1.00    3.99
   6   4   0    1.32    4.30
  -8  -4   0  519.85   30.83
   8   4   0  555.94   31.71
   8   4   0  539.90   31.87
 -10  -4   0    2.46    5.16
  10  -4   0   -1.33    3.44
  10   4   0   -0.38    4.30
  10   4   0    7.05    7.02
 -12  -4   0  214.12   22.43
  12  -4   0  234.61   20.17
  12   4   0  212.59   23.32
  12   4   0  216.13   23.13
  14  -4   0   -1.09    5.01
 -14  -4   0   -3.09    4.02
  14   4   0    0.61    6.63
  14   4   0   -3.00    3.55
 -16  -4   0   88.50   23.94
  16  -4   0  103.36   24.91
  16   4   0  122.60   25.03
  16   4   0   88.43   24.86
  18  -4   0    0.97    8.78
  18   4   0    1.88    7.29
  18   4   0    8.49    9.81
  -1  -5   0  211.95   14.50
  -1  -5   0  200.99   12.06
   1   5   0  191.98   14.01
   1   5   0  193.92    9.18
   1   5   0  190.60    9.93
  -3  -5   0   62.23   12.46
   3   5   0   53.69   10.06
   3   5   0   55.59    7.64
  -5  -5   0  143.13   15.04
   5   5   0  166.56   14.86
   5   5   0  156.47   15.77
  -7  -5   0   90.71   18.55
   7   5   0   89.19   16.72
   7   5   0   89.54   16.26
  -9  -5   0    3.57    5.05
   9  -5   0    4.97    4.52
   9   5   0   -0.58    5.04
   9   5   0    2.25    4.69
 -11  -5   0  118.73   24.36
  11   5   0   92.65   20.98
  11   5   0   96.86   21.17
 -13  -5   0   54.36   17.75
  13   5   0   49.53   15.73
  13   5   0   26.41   11.71
 -15  -5   0   42.89   15.68
  15  -5   0   25.25   11.18
  15   5   0   57.69   17.84
  15   5   0   52.25   17.00
  17  -5   0   70.42   20.08
  17   5   0   21.16   13.62
  17   5   0   26.23   12.66
   0  -6   0   -0.54    2.56
   0  -6   0    0.65    2.58
   0   6   0   -0.01    3.14
  -2  -6   0   86.40   15.89
   2  -6   0   63.71    7.06
  -2  -6   0   55.79    8.09
   2   6   0   61.97    7.27
   2   6   0   59.16    6.57
   2   6   0   76.13   13.19
  -2   6   0   59.74    6.93
  -4  -6   0    0.47    3.53
   4   6   0   -0.45    3.68
   4   6   0   -0.13    3.63
  -6  -6   0  346.38   25.53
   6   6   0  334.19   22.95
   6   6   0  359.32   26.13
  -8  -6   0    1.75    5.36
   8   6   0   -1.70    4.23
   8   6   0   -1.64    3.77
  10  -6   0  348.91   20.36
 -10  -6   0  331.77   28.37
  10   6   0  327.38   27.61
  10   6   0  343.45   29.77
  12  -6   0   -0.19    4.60
 -12  -6   0    7.51    8.14
  12   6   0    1.64    7.16
  12   6   0    2.24    6.84
 -14  -6   0  157.42   29.75
  14  -6   0  132.70   16.33
  14   6   0   88.84   22.29
  14   6   0  143.44   29.11
  16  -6   0    0.21    5.86
  16   6   0   -1.53    6.26
  16   6   0    9.53   10.03
  -1  -7   0  327.54   17.98
  -1  -7   0  338.62   21.35
   1   7   0  333.92   13.30
   1   7   0  355.17   12.62
   1   7   0  362.30   22.39
  -3  -7   0   53.41   11.73
   3   7   0   59.12   10.75
   3   7   0   62.62    7.68
   3   7   0   66.49   13.21
  -5  -7   0  139.25   16.24
   5   7   0  149.47   14.56
   5   7   0  146.54   16.96
   7   7   0   38.17   11.41
   7   7   0   57.27   13.59
  -9  -7   0   54.65   15.45
   9   7   0   60.51   16.23
   9   7   0   56.84   14.45
  11  -7   0   49.03   10.67
 -11  -7   0   28.78   10.91
  11   7   0    9.56    9.03
  11   7   0   23.09   10.84
 -13  -7   0  114.20   25.62
  13   7   0  107.30   24.17
  13   7   0   83.80   21.42
  15  -7   0   50.66   14.65
  15   7   0    4.34    9.62
  15   7   0    4.20    9.44
  17  -7   0    8.91   10.25
  17   7   0   40.36   20.88
  17   7   0   29.89   14.85
   0  -8   0 1867.71   58.90
   0  -8   0 1813.26   51.01
   0   8   0 1853.59   59.06
   2  -8   0   -2.29    1.63
  -2  -8   0   -1.32    2.82
   2  -8   0   -0.10    1.64
   2  -8   0    1.28    2.34
   2   8   0   -1.60    1.85
   2   8   0    1.52    2.97
   2   8   0   -2.69    3.10
  -2   8   0   -1.10    2.53
  -4  -8   0  184.93   18.78
   4   8   0  184.75   19.10
   4   8   0  172.10   13.70
   4   8   0  134.00   13.11
  -6  -8   0   -0.66    4.27
   6   8   0    0.08    3.98
   6   8   0    0.60    4.78
  -8  -8   0  171.31   20.14
   8  -8   0  164.32    9.73
   8   8   0  156.09   18.11
   8   8   0  153.28   20.32
  10  -8   0    3.02    4.04
 -10  -8   0    6.29    4.68
  10   8   0   -5.54    4.00
  10   8   0    3.23    6.44
 -12  -8   0  136.61   28.86
  12  -8   0  111.91   12.46
  12   8   0  155.45   31.86
  12   8   0  132.91   24.82
  14  -8   0    3.83    6.10
  14   8   0    4.29    8.24
  14   8   0    2.33    8.42
  16  -8   0   83.99   20.36
  16   8   0   63.89   22.80
  16   8   0   74.84   27.41
   1  -9   0  119.48   12.69
  -1  -9   0   86.92   17.19
   1  -9   0  127.05   10.25
  -1   9   0  111.32   12.39
   3  -9   0   40.07    3.89
   3  -9   0   56.11   10.47
   3  -9   0   46.09    4.92
  -3   9   0   66.52   11.58
  -5  -9   0  155.10   18.32
   5   9   0  143.82   14.74
   5   9   0  147.93   18.96
   5   9   0  152.89   14.02
  -7  -9   0  188.79   21.68
   7   9   0  168.54   21.45
   7   9   0  214.82   20.04
   7   9   0  182.30   17.33
   9   9   0   29.70   12.69
   9   9   0   41.54   14.47
 -11  -9   0   68.59   21.24
  11   9   0   56.96   16.11
  11   9   0   66.09   18.37
  13   9   0   31.04   13.37
  13   9   0   26.82   12.84
  15   9   0   31.83   15.62
  15   9   0   23.73   15.66
   0  10   0    5.14    5.59
  -2 -10   0 1546.98   61.91
   2 -10   0 1578.07   43.52
   2 -10   0 1660.04   54.59
   2  10   0 1715.21   41.09
  -2  10   0 1694.59   54.61
   2  10   0 1668.29   43.06
   2  10   0 1727.67   64.57
   4 -10   0    3.46    2.11
  -4 -10   0    2.79    6.16
   4 -10   0    1.33    3.03
   4  10   0    4.14    6.33
   4  10   0    6.53    4.74
   4  10   0   -0.64    4.16
  -6 -10   0  344.39   29.78
   6  10   0  326.42   23.40
   6  10   0  322.26   29.89
   6  10   0  354.52   23.65
   8  10   0    5.36    7.88
   8  10   0    3.85    6.77
   8  10   0    6.71    6.42
 -10 -10   0  262.30   56.44
  10 -10   0  171.11   11.94
  10  10   0  164.74   19.99
  10  10   0  168.73   24.29
  12 -10   0    1.14    4.94
  12  10   0   10.99    8.97
  12  10   0    3.04    8.32
  14 -10   0  107.09   14.12
  14  10   0  166.45   36.51
  14  10   0  118.43   28.69
   1 -11   0   87.39   16.84
  -1  11   0   91.75   17.06
   3 -11   0   44.79   10.07
  -3 -11   0   12.81    8.14
   3  11   0   12.27    5.45
  -3  11   0   39.71    9.70
   3  11   0   11.17    4.45
   3  11   0   15.08    8.53
  -5 -11   0  108.09   21.52
   5  11   0   98.38   21.16
   5  11   0   96.03   10.84
   5  11   0   95.83   12.29
  -7 -11   0   25.56   11.17
   7  11   0   35.13   11.11
   7  11   0   22.51   11.25
   7  11   0   24.82   10.25
   9  11   0   24.66   10.32
   9  11   0   22.73   10.92
   9  11   0   31.95   12.42
  11  11   0   30.57   14.05
  11  11   0   26.90   12.28
  13 -11   0   25.41    8.66
  13  11   0   42.31   20.70
  13  11   0   65.72   21.77
  15 -11   0   19.31    9.27
  15  11   0   21.47   12.95
  15  11   0   12.50   11.35
   0 -12   0 2615.35   85.51
   0  12   0 2676.63   87.28
   2 -12   0    0.56    4.30
  -2 -12   0   -1.95    4.11
   2  12   0   -1.11    4.57
  -2  12   0    1.02    3.95
   4 -12   0  324.59   15.13
   4 -12   0  353.32   21.61
  -4 -12   0  373.38   31.26
   4  12   0  323.65   19.27
   4  12   0  320.93   29.96
   4  12   0  294.73   17.47
   6 -12   0    5.83    2.42
  -6 -12   0    0.99    6.72
   6  12   0    0.06    4.91
   6  12   0    6.79    8.34
   6  12   0    9.64    5.68
   8  12   0   65.45   16.01
   8  12   0   55.04   19.05
   8  12   0   71.78   16.22
  10 -12   0    0.95    2.84
  10  12   0    8.00    7.53
  10  12   0   13.42    9.47
  10  12   0    8.20    9.63
  12 -12   0  149.61   12.53
  12  12   0  219.40   42.84
  12  12   0  165.13   31.11
  14 -12   0   -3.62    4.20
  14  12   0   -1.87    8.00
  14  12   0   -3.38    6.55
   1 -13   0  163.92   18.34
  -1 -13   0   92.61   19.55
  -1  13   0  136.98   16.84
   3 -13   0   60.74   13.43
  -3 -13   0  104.47   22.59
   3  13   0   92.46    6.78
   3  13   0   98.11    7.30
   3  13   0   99.79   23.07
  -5 -13   0   78.72   21.83
   5  13   0   75.68    9.22
   5  13   0   69.85   12.75
   5  13   0   50.93   15.26
   7  13   0   52.31   15.90
   7  13   0   78.29   17.03
   7  13   0   65.37   14.56
   9  13   0   36.37   13.92
   9  13   0   17.86   14.81
  11 -13   0   23.61    5.31
  11  13   0   23.31   12.79
  11  13   0   65.08   17.97
  13  13   0   10.33   11.79
  13  13   0    9.44   11.74
   0 -14   0   -0.17    4.84
   0  14   0    1.05    5.35
   2 -14   0  396.74   28.28
  -2 -14   0  348.76   36.85
  -2  14   0  416.41   31.52
   2  14   0  478.15   36.51
  -4 -14   0    3.18    6.86
   4 -14   0   -0.52    4.23
   4  14   0    3.38    6.97
   4  14   0   12.23    5.04
   6 -14   0  205.94   12.15
   6  14   0  202.68   18.23
   6  14   0  226.20   17.82
   8  14   0   10.98    7.19
   8  14   0   12.49    8.79
   8  14   0    4.18    7.79
  10  14   0  179.39   34.05
  10  14   0  147.57   30.84
  12 -14   0    8.45    3.92
  12  14   0    2.42    9.04
  12  14   0   -3.12    7.71
   1 -15   0   15.71   10.57
  -1 -15   0   44.09   15.40
   1  15   0   37.24   13.76
  -1  15   0    5.40    7.09
  -3 -15   0    4.98    8.16
   3 -15   0   70.12   15.57
   3  15   0   18.52    9.81
   5 -15   0   17.40    6.93
   5  15   0   67.87   21.86
   7  15   0   25.34    9.01
   7  15   0   25.86    8.99
   7  15   0   21.65   11.85
   9  15   0   40.26   13.54
   9  15   0   23.13   17.25
  11  15   0    2.58   10.82
  11  15   0   -0.09    8.45
   0 -16   0  163.04   20.94
   0  16   0  199.49   22.65
   2 -16   0    2.08    5.97
   2  16   0    2.51    6.84
   4 -16   0  105.94   21.00
   4  16   0   76.51   21.79
   6  16   0   19.96   12.73
   6  16   0    1.67    3.11
   8  16   0   94.70   18.38
   8  16   0   94.24   23.70
   1 -17   0   67.94   19.50
  -1  17   0   52.42   15.07
   3 -17   0    2.81    7.46
   3  17   0   11.48    9.46
   5  17   0   22.47   13.70
   7  17   0   28.95   17.13
   7  17   0   -0.30    3.25
   0  18   0   11.28    9.64
   2 -18   0   57.33   20.33
   2  18   0   47.57   19.32
   4 -18   0   -1.14    4.82
   4  18   0   -0.25    7.93
  18   0  -1   56.64   19.61
  18   0  -1   52.37   14.74
  16   0  -1    7.06    5.85
  16   0  -1    6.43    8.46
 -14   0   1   28.44    9.12
  14   0  -1   32.31   13.08
  14   0  -1   28.77    9.96
  12   0  -1    3.67    5.95
  12   0  -1    2.51    4.47
 -12   0   1   -1.46    3.83
 -10   0   1  198.22   15.57
  10   0  -1  179.59   18.13
  10   0  -1  186.23   16.23
   8   0  -1    1.09    2.87
   8   0  -1    4.13    4.66
  -8   0   1    1.09    2.96
   6   0  -1  960.68   32.61
  -6   0   1  936.80   31.20
  -4   0   1   -2.17    1.62
   4   0  -1   -0.74    1.76
  -2   0   1  876.14  132.26
   2   0  -1  737.91   48.32
   2   0  -1  726.84   46.03
  -2   0  -1 1017.03  143.80
   2   0   1  954.99   54.33
   2   0   1  977.56  146.14
  -4   0  -1    0.92    2.21
   4   0   1   -0.46    2.02
   4   0   1    0.82    2.94
   6   0   1 4075.54  192.93
   6   0   1 3992.17  494.15
  -6   0  -1 3245.56  226.07
  -6   0  -1 3657.22  470.48
   8   0   1    0.14    3.83
   8   0   1   -0.05    3.04
  -8   0  -1    0.08    2.70
  10   0   1 1201.94   43.99
 -10   0  -1 1207.52   43.87
  10   0   1 1154.78   48.60
  12   0   1    2.66    6.85
  12   0   1    0.97    3.82
 -12   0  -1    3.38    5.07
  14   0   1  361.24   24.53
 -14   0  -1  330.43   25.03
  14   0   1  383.82   31.01
  16   0   1   -0.29    7.27
 -16   0  -1    2.00    5.69
  16   0   1   -0.99    4.99
  18   0   1   99.32   25.34
  18   0   1   70.16   16.05
  17  -1  -1    5.37    6.21
  17  -1  -1   25.87   12.22
  17   1  -1   32.80   12.30
  17   1  -1   14.65   12.36
 -15  -1   1   30.09   11.97
  15  -1  -1   69.65   19.53
  15  -1  -1   51.57   12.90
  15   1  -1   30.97   11.59
  15   1  -1   34.64   15.35
  13  -1  -1   95.58   20.69
 -13  -1   1  179.75   17.82
  13   1  -1  155.46   17.93
  13   1  -1  167.96   20.48
  11  -1  -1  131.28   16.11
  11  -1  -1  123.59   12.87
 -11   1   1  120.04   11.73
   9  -1  -1   40.09    9.25
   9  -1  -1   33.27    9.90
  -9  -1   1   60.73   11.78
   9   1  -1   67.57   13.15
   9   1  -1   54.50   13.33
  -9   1   1   28.51    7.63
  -7  -1   1   61.16   11.18
   7   1  -1   38.74    9.86
   7   1  -1   47.63   10.32
   5  -1  -1   63.99    6.19
  -5   1   1   67.55    5.87
  -3  -1   1   76.11    6.86
   3   1  -1   79.27    7.08
   1  -1  -1  319.48   40.20
   1  -1  -1  284.55   13.04
  -1   1   1  264.12   14.33
  -1   1   1  358.84   45.16
  -1  -1  -1  620.07   17.05
  -1  -1  -1  661.74   18.42
  -3  -1  -1   37.92    5.22
  -3  -1  -1   39.90    6.95
   3   1   1   38.58    5.14
   3   1   1   36.63    5.24
   5  -1   1  159.87    9.39
   5  -1   1  173.84   11.49
  -5   1  -1  169.13    9.53
  -7  -1  -1   89.11   10.20
   7   1   1   77.88   10.50
   7   1   1  101.61   10.97
   9  -1   1   39.03    8.41
   9  -1   1   29.56    9.62
  -9   1  -1   29.24    7.59
   9   1   1   82.89   15.70
 -11  -1  -1   48.81   11.53
  11   1   1   38.16   11.10
  11   1   1   35.97   11.64
 -13  -1  -1  107.57   19.28
  13  -1   1   59.37   15.56
 -13   1  -1   56.85   11.75
  13   1   1   88.56   20.47
  13   1   1  100.42   14.07
  15  -1   1   28.37   12.54
  15  -1   1   32.16    9.84
 -15  -1  -1    9.50    6.86
  15   1   1    1.58    7.02
  15   1   1    8.84    7.77
  17  -1   1   18.59   12.95
 -17  -1  -1   70.55   19.69
  17   1   1   65.19   20.43
  17   1   1   52.99   14.59
  18  -2  -1    0.84    8.19
  18   2  -1    0.64    6.46
  18   2  -1   12.76   11.80
 -16  -2   1   48.31   14.04
  16  -2  -1   82.00   20.74
  16  -2  -1   81.17   15.52
  16   2  -1   77.33   22.23
  16   2  -1   67.30   17.41
 -14  -2   1   -3.64    3.23
  14  -2  -1    3.22    4.30
  14  -2  -1    3.12    6.93
  14   2  -1    3.09    7.60
  14   2  -1   -2.55    4.19
  12  -2  -1   39.32   11.85
  12  -2  -1   34.57    8.63
 -12  -2   1   41.10   11.64
  12   2  -1    9.20    8.45
  12   2  -1   26.66   10.95
  10  -2  -1    1.07    2.97
 -10  -2   1    3.82    5.09
  10  -2  -1   -1.03    3.71
  10   2  -1   -2.02    4.01
  10   2  -1    1.66    4.29
  -8  -2   1  172.21   15.49
   8  -2  -1  153.26   10.96
   8   2  -1  190.50   16.76
   8   2  -1  171.59   16.64
  -6  -2   1    0.70    3.38
   6   2  -1    1.11    3.90
   6   2  -1    1.59    3.33
  -4  -2   1   45.62    6.78
   4   2  -1   44.35    8.00
   4   2  -1   49.20    7.09
  -2  -2   1    0.69    2.08
   2   2  -1    1.79    2.49
   0  -2  -1  909.90   24.01
   0  -2   1  880.81   23.22
   0   2  -1  896.84   23.55
   0   2  -1  890.04   20.82
  -2  -2  -1    1.33    2.42
  -2  -2  -1    0.97    2.55
   2   2   1    0.18    1.91
   2   2   1    0.64    2.19
   4  -2   1 3179.72  119.73
   4  -2   1 3152.50  306.25
  -4  -2  -1 3296.53  172.85
  -4  -2  -1 3896.01  454.86
   4   2   1 3267.36  165.90
  -4   2  -1 3205.80  287.84
  -4   2  -1 3195.95  130.45
   4   2   1 3345.23  424.29
   6  -2   1    0.89    3.08
  -6  -2  -1    1.45    3.68
   6   2   1   -0.16    3.68
   6   2   1    0.41    2.94
   8  -2   1  283.86   18.51
  -8  -2  -1  283.56   20.25
   8   2   1  278.02   20.99
  -8   2  -1  274.87   13.77
   8   2   1  323.34   21.73
  10  -2   1   -1.15    4.12
 -10  -2  -1   -1.32    3.35
  10   2   1    0.08    4.28
  10   2   1    1.50    4.97
 -10   2  -1   -0.06    2.68
  12  -2   1  304.59   24.49
 -12  -2  -1  323.29   24.95
  12   2   1  294.82   24.27
  12   2   1  342.25   28.29
 -12   2  -1  322.56   18.56
  14  -2   1   -1.40    5.83
 -14  -2  -1   -1.98    4.18
  14  -2   1    3.30    3.35
  14   2   1    8.00    8.13
  14   2   1    1.61    5.62
 -16  -2  -1   70.94   17.90
  16  -2   1   75.62   20.21
  16   2   1  116.97   26.18
  16   2   1   57.73   16.09
  18  -2   1    0.98    7.31
 -18  -2  -1   -1.11    4.84
  18   2   1    1.36    5.32
  18   2   1   18.13   13.19
  17  -3  -1   37.41   16.19
 -17  -3   1    6.75    7.97
  17   3  -1    3.70    7.05
  17   3  -1   18.86   12.64
  15  -3  -1    9.20    8.29
 -15  -3   1   20.93   10.29
  15   3  -1   23.75   11.40
  15   3  -1   16.44   11.54
 -13  -3   1   17.20    9.20
  13  -3  -1   93.00   18.52
  13   3  -1   36.40   13.46
  13   3  -1   35.02   12.15
 -11  -3   1   92.62   18.35
  11   3  -1   88.35   17.96
  11   3  -1  109.46   21.15
  -9  -3   1   53.54   13.72
   9   3  -1   51.43   13.57
   9   3  -1   56.79   13.46
  -7  -3   1  326.08   21.78
   7   3  -1  360.86   23.22
   7   3  -1  266.10   20.55
  -5  -3   1  178.76   14.53
   5   3  -1  183.80   15.17
   5   3  -1  172.55   14.23
  -3  -3   1   78.44    8.68
   3   3  -1   82.83    9.01
   3   3  -1   91.43    8.77
  -1  -3   1  116.17    8.86
   1   3  -1  116.53    6.69
   1   3  -1  114.32    7.44
   1  -3   1  107.88    3.46
   1  -3   1   93.26    3.93
   1  -3   1   98.10    6.12
  -1   3  -1   88.74    6.07
  -3  -3  -1  146.18   11.87
  -3  -3  -1  151.33   11.35
   3   3   1  145.31   10.71
   3   3   1  137.75   11.52
  -5  -3  -1  329.98   20.30
   5   3   1  349.42   20.91
   5   3   1  349.37   20.22
  -7  -3  -1  561.26   29.44
   7   3   1  546.33   28.77
   7   3   1  397.43   25.20
  -9  -3  -1   79.50   16.17
   9   3   1   68.83   14.85
   9   3   1   66.04   16.05
 -11  -3  -1   66.96   16.44
  11   3   1   51.34   15.30
  11   3   1   59.06   15.85
 -13  -3  -1   37.50   12.97
  13   3   1   27.87   11.48
  13   3   1   34.10   12.57
 -15  -3  -1   18.67   10.42
  15  -3   1    8.66    8.65
  15   3   1   15.41   11.73
  15   3   1   17.37    9.76
  17  -3   1   51.33   16.27
 -17  -3  -1   12.34   10.11
  17   3   1    7.04   10.91
  17   3   1   10.03    9.19
  18  -4  -1  138.49   29.14
  18   4  -1  169.38   34.72
  18   4  -1  116.99   27.11
 -16  -4   1    2.67    4.30
  16  -4  -1    6.95    8.27
  16   4  -1    5.51    6.85
  16   4  -1   12.77   11.08
  14  -4  -1  141.95   17.53
 -14  -4   1  125.22   26.14
  14   4  -1  134.03   19.77
  14   4  -1  121.30   25.39
 -12  -4   1    4.56    6.33
  12  -4  -1    0.73    5.12
  12   4  -1    2.92    6.21
  12   4  -1   -2.91    4.23
  10  -4  -1  669.00   31.17
 -10  -4   1  619.72   37.11
  10   4  -1  685.26   39.15
  10   4  -1  689.70   39.19
  -8  -4   1    3.89    4.62
   8   4  -1   -1.00    4.04
   8   4  -1    1.27    3.90
  -6  -4   1  234.49   18.71
   6   4  -1  215.80   17.72
   6   4  -1  236.24   19.12
  -4  -4   1    0.99    2.94
   4   4  -1    1.72    3.73
   4   4  -1    2.70    3.38
  -2  -4   1  142.34   11.64
   2  -4  -1  139.53    8.06
   2   4  -1  121.57   11.06
   2   4  -1  115.15    8.60
   2   4  -1  135.55    9.96
  -2   4   1  141.74    7.56
   0  -4   1   -1.12    1.95
   0  -4   1   -0.22    1.60
   0  -4  -1   -2.34    2.14
   0  -4   1    0.10    2.14
   0  -4  -1   -0.18    1.73
   0   4   1    1.11    1.13
   0   4   1    1.51    1.12
   0   4   1   -0.17    2.75
   0   4  -1    0.18    1.50
   0   4  -1    0.08    1.28
   0   4  -1    0.36    2.42
  -2  -4  -1 2039.07   56.58
  -2  -4  -1 2007.27   52.36
   2   4   1 2011.59   56.29
   2   4   1 1974.06   50.07
  -4  -4  -1    2.51    3.99
  -4  -4  -1    1.13    3.05
   4   4   1   -0.22    2.70
   4   4   1    4.26    3.94
   6  -4   1 1682.59   43.43
  -6  -4  -1 1627.25   57.08
   6   4   1 1647.26   55.09
   6   4   1 1802.49   59.09
  -8  -4  -1   -0.88    3.37
   8  -4   1   -0.74    2.70
   8   4   1    1.47    4.58
   8   4   1    3.14    5.18
 -10  -4  -1   19.30   10.63
  10  -4   1   28.73    8.85
  10   4   1   32.14   12.71
  10   4   1    9.03    7.85
 -12  -4  -1    3.20    5.68
  12  -4   1    7.90    6.56
  12   4   1    3.65    6.31
  12   4   1    7.65    7.91
  14  -4   1  124.41   16.40
 -14  -4  -1  141.71   19.73
  14   4   1  160.54   28.92
  14   4   1  122.67   18.05
 -16  -4  -1    2.09    5.27
  16  -4   1    0.38    6.22
  16   4   1   -1.75    5.33
  16   4   1    7.74   10.31
  18  -4   1  110.06   25.54
  18   4   1   70.94   21.03
  18   4   1   79.57   24.62
  17  -5  -1    6.27    9.03
  17   5  -1   31.50   19.76
  17   5  -1   30.49   15.38
  15  -5  -1   44.01   13.13
 -15  -5   1    4.24    7.20
  15   5  -1   15.10   11.40
  15   5  -1   19.53   11.78
 -13  -5   1  157.74   20.60
  13   5  -1  144.09   20.69
  13   5  -1  135.79   20.10
 -11  -5   1   55.96   15.62
  11   5  -1   51.13   15.17
  11   5  -1   39.23   12.57
  -9  -5   1   60.05   14.67
   9   5  -1   79.89   18.32
   9   5  -1   62.60   15.20
  -7  -5   1   51.96   13.48
   7   5  -1   45.77   12.78
   7   5  -1   31.59    9.72
  -5  -5   1  140.18   14.65
   5   5  -1  158.97   14.47
   5   5  -1  115.21   13.73
  -3  -5   1    6.13    4.89
   3  -5  -1   23.80    4.73
   3   5  -1    9.11    4.71
   3   5  -1    8.25    4.27
   3   5  -1    9.55    4.95
   1  -5  -1  235.19    8.15
   1  -5  -1  260.69    8.13
   1  -5  -1  272.40   14.40
  -1   5   1  243.45   13.50
  -1  -5  -1  363.02   16.18
  -1  -5  -1  359.80   19.50
   1   5   1  360.75   19.59
   1   5   1  334.90   13.08
   1   5   1  356.79   13.42
  -3  -5  -1   47.00    9.37
  -3  -5  -1   56.16   10.48
   3   5   1   54.72    9.58
   3   5   1   56.14   11.98
  -5  -5  -1  293.84   21.58
   5   5   1  319.88   22.46
   5   5   1  341.33   20.87
  -7  -5  -1   61.33   15.51
   7   5   1   54.02   13.12
   7   5   1   47.21   11.87
  -9  -5  -1   95.15   20.77
   9  -5   1   33.26    8.66
   9   5   1   94.29   20.30
   9   5   1   45.83   12.59
 -11  -5  -1   68.27   17.89
  11   5   1   80.06   19.09
  11   5   1   52.43   17.18
 -13  -5  -1  140.64   26.35
  13   5   1  145.91   27.83
  13   5   1  116.84   23.94
 -15  -5  -1    2.02    7.18
  15  -5   1   31.95   12.58
  15   5   1   14.76   11.28
  15   5   1   21.26   11.05
  17  -5   1   10.30    9.96
  17   5   1   26.08   14.51
  17   5   1   26.54   15.45
  16  -6  -1  138.08   20.00
  16   6  -1  188.85   36.13
  16   6  -1  154.81   32.02
  14  -6  -1    2.99    6.26
 -14  -6   1    2.78    6.47
  14   6  -1    0.27    7.51
  14   6  -1    3.12    7.39
  12  -6  -1  382.04   24.56
 -12  -6   1  359.84   31.18
  12   6  -1  352.22   30.98
  12   6  -1  362.28   32.77
 -10  -6   1   -1.67    4.15
  10  -6  -1    4.09    4.51
  10   6  -1    0.47    4.96
  10   6  -1    2.21    6.01
  -8  -6   1  150.31   17.64
   8   6  -1  170.22   19.44
   8   6  -1  147.01   16.88
  -6  -6   1    3.88    5.31
   6   6  -1   -0.23    4.22
   6   6  -1    2.81    5.09
  -4  -6   1  427.80   26.14
   4   6  -1  421.23   26.30
   4   6  -1  435.38   23.26
   2  -6  -1    3.72    3.05
  -2  -6   1    1.76    3.28
   2   6  -1    2.75    4.22
   2   6  -1   -1.38    2.67
   2   6  -1    0.71    2.63
  -2   6   1    0.45    2.60
   0  -6  -1 2326.81   56.64
   0  -6  -1 2482.10   66.07
   0  -6   1 2336.26   64.27
   0   6  -1 2389.97   65.09
   0   6   1 2528.67   65.91
   2  -6   1   -0.03    2.39
   2  -6   1   -0.86    1.55
  -2  -6  -1    1.97    3.46
  -2  -6  -1    0.37    3.35
   2  -6   1    0.15    1.30
  -2   6  -1    0.42    2.53
   2   6   1    1.11    2.95
   2   6   1    0.32    3.71
   2   6   1    0.17    2.63
  -4  -6  -1 1611.70   53.78
  -4  -6  -1 1656.38   57.81
   4   6   1 1628.55   50.72
   4   6   1 1690.73   58.52
  -6  -6  -1   -1.34    3.36
   6  -6   1    2.03    2.12
   6   6   1   -2.43    3.40
   6   6   1    0.28    4.14
   8  -6   1  150.90   11.14
  -8  -6  -1  174.45   19.29
   8   6   1  156.13   17.46
   8   6   1  182.20   20.25
  10  -6   1   -2.04    3.03
 -10  -6  -1    0.73    5.30
  10   6   1    0.86    5.75
  10   6   1    0.63    5.61
  12  -6   1   79.36   15.96
 -12  -6  -1   77.20   19.70
  12   6   1   63.98   17.48
  12   6   1   84.69   21.94
  14  -6   1    0.41    5.47
 -14  -6  -1    1.74    5.73
  14   6   1    1.59    6.73
  14   6   1   -4.27    4.49
  16  -6   1  124.22   25.05
  16   6   1   70.66   22.62
  16   6   1   78.99   22.46
  17  -7  -1   21.91   11.74
  17   7  -1    2.09    9.55
  17   7  -1   10.86   10.84
  15  -7  -1    2.52    6.73
  15   7  -1   14.18   13.63
  15   7  -1   37.48   16.06
 -13  -7   1   21.19   11.79
  13   7  -1   34.65   15.42
  13   7  -1   28.40   13.79
 -11  -7   1  107.59   25.19
  11   7  -1   95.67   20.85
  11   7  -1   86.01   20.28
  -9  -7   1   32.51   11.23
   9   7  -1   22.82   11.01
   9   7  -1   23.86    9.61
  -7  -7   1   79.32   19.38
   7   7  -1   83.12   17.11
   7   7  -1   93.61   20.84
  -5  -7   1   45.17   13.17
   5   7  -1   35.44    9.94
   5   7  -1   48.40   12.00
   5   7  -1   36.86   10.55
  -3  -7   1  109.22   13.23
   3   7  -1   97.51   13.07
   3   7  -1  100.77   10.46
   3   7  -1  115.72   10.12
   1  -7  -1  313.26   12.78
   1  -7  -1  328.69   13.64
   1  -7  -1  333.42   19.10
  -1   7   1  325.24   18.65
  -1  -7  -1  103.86    9.93
  -1  -7  -1  112.23   12.31
   1   7   1  116.50    6.79
   1   7   1  120.06   12.90
   1   7   1  100.52    6.68
  -3  -7  -1   63.99   12.65
  -3  -7  -1   74.63   16.03
   3   7   1   62.44   13.99
   3   7   1   54.34    7.65
   3   7   1   52.12    7.15
  -5  -7  -1   84.58   15.32
   5   7   1   78.65   10.64
   5   7   1   93.62   17.71
  -7  -7  -1  120.00   16.48
   7   7   1  121.53   16.69
   7   7   1  133.55   15.53
  -9  -7  -1   25.85   10.30
   9   7   1   34.49   12.40
   9   7   1   36.43   12.49
 -11  -7  -1  111.93   26.15
  11   7   1   86.48   22.43
  11   7   1  108.90   23.48
 -13  -7  -1   42.93   16.82
  13   7   1   41.48   15.91
  13   7   1   50.99   15.14
  15  -7   1   11.34    8.79
  15   7   1   37.45   15.25
  15   7   1   36.17   16.51
  17  -7   1   27.76   13.02
  17   7   1    2.66   10.64
  17   7   1   12.47   11.71
  16  -8  -1    4.86    7.30
  16   8  -1    8.91   11.06
  16   8  -1   -3.44    7.17
  14  -8  -1   75.25   16.00
  14   8  -1   87.40   25.33
  14   8  -1   94.15   24.82
  12  -8  -1    2.05    4.61
 -12  -8   1   13.41    9.99
  12   8  -1    3.06    7.07
  12   8  -1    0.60    5.88
  10  -8  -1  320.26   17.84
 -10  -8   1  294.48   29.34
  10   8  -1  304.44   27.93
  10   8  -1  342.85   32.08
  -8  -8   1    2.93    7.49
   8   8  -1    2.73    5.45
   8   8  -1    3.49    6.38
  -6  -8   1  147.55   17.61
   6   8  -1  116.19   16.71
   6   8  -1  101.17   13.30
   6   8  -1  121.64   13.30
  -4  -8   1    4.74    6.09
   4  -8  -1    0.23    2.47
   4   8  -1    1.52    4.14
   4   8  -1    0.91    3.81
   4   8  -1    2.64    3.83
   2  -8  -1   63.38    5.44
   2  -8  -1   55.20    8.05
  -2  -8   1   64.01   14.65
   2  -8  -1   52.92    4.66
   2   8  -1   52.97    6.74
  -2   8   1   55.00    7.79
   2   8  -1   64.32   13.31
   2   8  -1   55.39    6.04
   0  -8   1    5.60    4.45
   0  -8  -1    2.03    3.97
   0  -8  -1    1.94    3.37
   0   8  -1    4.15    4.78
   0   8   1    4.61    4.42
   2  -8   1  140.91   11.97
  -2  -8  -1  164.85   14.21
   2  -8   1  147.37    7.91
  -2  -8  -1  164.51   16.28
   2   8   1  175.98   17.18
  -2   8  -1  155.97   12.85
   2   8   1  176.01   10.93
   2   8   1  164.14   10.23
  -4  -8  -1   -0.10    3.42
   4   8   1   -0.83    3.44
   4   8   1   -3.41    2.48
   4   8   1    3.51    4.25
  -6  -8  -1  423.42   31.07
   6   8   1  491.62   33.54
   6   8   1  453.17   27.30
  -8  -8  -1   -5.79    3.26
   8  -8   1    0.08    2.51
   8   8   1   -3.93    3.91
   8   8   1    0.34    5.52
  10  -8   1   28.30    7.48
 -10  -8  -1   38.56   14.48
  10   8   1   32.80   12.63
  10   8   1   12.94   10.35
 -12  -8  -1    8.32    6.53
  12  -8   1   -2.43    3.73
  12   8   1    2.66    6.82
  12   8   1    0.21    5.32
  14  -8   1  113.12   14.54
  14   8   1  117.56   25.82
  14   8   1  107.32   26.33
  16  -8   1   -0.66    5.81
  16   8   1   -1.93    7.82
  16   8   1   -4.45    4.40
  15  -9  -1   28.98   12.05
  15   9  -1   -1.39    8.83
  15   9  -1    9.36   12.36
  13  -9  -1   23.06    8.69
  13   9  -1   53.00   19.86
  13   9  -1   43.04   16.18
 -11  -9   1   18.94   10.03
  11   9  -1   32.63   13.23
  11   9  -1   29.50   15.40
   9   9  -1  101.60   20.35
   9   9  -1  103.76   23.49
  -7  -9   1   79.05   18.85
   7   9  -1   92.56   18.80
   7   9  -1   88.14   12.46
   7   9  -1   82.91   21.06
  -5  -9   1  251.84   23.33
   5   9  -1  279.70   20.30
   5   9  -1  223.15   17.27
   5   9  -1  249.90   24.01
   3  -9  -1  100.38    5.66
   3  -9  -1  106.45   10.79
   3  -9  -1  104.03    6.55
  -3   9   1  104.05   10.28
  -1  -9   1   89.51   12.09
   1   9  -1   84.37    5.89
   1   9  -1   92.12   12.77
   1   9  -1   86.47    5.36
  -1  -9  -1  168.91   16.84
  -1  -9  -1  183.50   14.70
   1   9   1  187.26    7.21
   1   9   1  174.53   17.28
   1   9   1  187.15    7.46
  -3  -9  -1   51.74   14.80
   3   9   1   46.98    6.70
   3   9   1   52.31   13.62
   3   9   1   50.61    9.62
  -5  -9  -1  303.89   26.22
   5   9   1  274.83   25.34
   5   9   1  290.28   19.94
   5   9   1  310.28   20.85
  -7  -9  -1   98.01   19.79
   7   9   1   91.86   18.14
   7   9   1  116.42   23.62
   9   9   1  129.19   23.23
   9   9   1  111.13   26.75
 -11  -9  -1   17.83   11.46
  11   9   1   19.15   12.34
  11   9   1   19.72   11.76
  13   9   1   72.28   20.82
  13   9   1   75.15   24.51
  15  -9   1    7.22    7.46
  15   9   1    9.84   12.21
  15   9   1    2.75    9.48
  14 -10  -1   -0.20    4.96
  14  10  -1    4.89   10.63
  14  10  -1    6.41    7.86
  12 -10  -1   13.87    7.13
  12  10  -1   29.44   15.31
  12  10  -1   12.37   11.18
  10 -10  -1    3.32    3.55
  10  10  -1    6.27    7.12
  10  10  -1    3.66    7.83
   8  10  -1  237.74   21.98
   8  10  -1  211.28   25.87
   8  10  -1  200.10   20.43
  -6 -10   1    9.01    9.26
   6  10  -1    3.34    5.13
   6  10  -1    0.60    6.13
   6  10  -1    1.11    5.36
  -4 -10   1  272.49   24.43
   4 -10  -1  275.83   17.15
   4 -10  -1  272.29   11.06
   4  10  -1  279.17   25.85
   4  10  -1  287.17   19.13
   4  10  -1  288.94   17.44
   2 -10  -1    1.72    4.57
  -2 -10   1    4.16    5.89
   2 -10  -1    3.13    3.56
   2  10  -1    3.65    6.33
   2  10  -1    0.32    3.03
   2  10  -1    7.88    3.44
  -2  10   1    1.05    4.15
   0 -10  -1  469.37   28.84
   0 -10   1  486.44   28.70
   0 -10  -1  504.19   24.62
   0  10  -1  498.96   29.97
   0  10   1  513.51   29.81
   2 -10   1    2.79    3.37
   2 -10   1    5.91    4.76
  -2 -10  -1    2.08    4.64
  -2  10  -1    1.03    4.13
   2  10   1    3.84    3.59
   2  10   1    2.52    5.57
   2  10   1    5.61    2.92
   4 -10   1  626.68   17.90
   4 -10   1  632.77   25.92
  -4 -10  -1  539.53   36.39
   4  10   1  622.72   38.76
   4  10   1  629.00   28.32
  -4  10  -1  637.06   25.67
   4  10   1  611.56   27.20
  -6 -10  -1    0.58    5.18
   6  10   1   -0.53    4.88
   6  10   1    3.06    6.22
   6  10   1    7.95    7.89
   8 -10   1  227.12   11.03
   8  10   1  231.07   21.61
   8  10   1  205.72   25.13
 -10 -10  -1   12.35    9.32
  10 -10   1   -1.52    3.13
  10  10   1    6.04    6.69
  10  10   1    3.18    6.34
  12 -10   1  194.62   15.91
  12  10   1  255.92   26.47
  12  10   1  255.35   30.33
  14 -10   1    0.90    5.48
  14  10   1   -0.12    7.79
  14  10   1    1.05    6.10
  15 -11  -1    8.12    7.93
  15  11  -1   21.96   15.23
  15  11  -1   18.91   16.94
  13  11  -1   29.86   16.02
  13  11  -1   30.44   14.70
  11  11  -1   54.61   19.74
  11  11  -1   68.15   19.81
   9  11  -1   11.02   10.78
   9  11  -1   10.29    8.89
   9  11  -1   15.61    9.29
  -7 -11   1   30.29   13.35
   7  11  -1   50.77   12.94
   7  11  -1   30.64   11.77
   7  11  -1   57.60   18.74
  -5 -11   1   45.23   12.76
   5  11  -1   34.84    9.97
   5  11  -1   54.36   15.12
   5  11  -1   45.01   10.66
  -3 -11   1   17.92    8.50
   3 -11  -1   17.42    5.41
   3 -11  -1   12.66    6.23
   3  11  -1   15.25    8.62
   3  11  -1   18.75    6.39
   3  11  -1   31.61    6.32
  -3  11   1    8.89    5.69
   1 -11  -1  315.32   23.60
   1 -11  -1  322.25   19.26
  -1  11   1  324.82   23.18
   1 -11   1   43.77   11.25
  -1 -11  -1   30.73   10.21
   1  11   1   35.71   13.23
  -1  11  -1   45.89   11.98
  -3 -11  -1   49.78   16.42
   3 -11   1   32.18    9.01
   3  11   1   56.99   15.58
   3  11   1   52.49    8.98
   3  11   1   55.70    6.56
  -5 -11  -1   56.92   16.05
   5  11   1   67.90   12.89
   5  11   1   70.06   18.84
   5  11   1   63.06   12.34
  -7 -11  -1   73.66   21.27
   7  11   1   45.60   16.23
   7  11   1   35.01   12.18
   7  11   1   51.88   14.37
   9 -11   1   45.60    5.42
   9  11   1   21.56   13.67
   9  11   1   40.03   12.73
   9  11   1   18.52    9.38
  11 -11   1   20.42    6.35
  11  11   1   50.38   15.61
  11  11   1   37.03   14.78
  13 -11   1   20.86    8.62
  13  11   1   15.40   13.63
  13  11   1   14.99   11.95
  15 -11   1    9.73    8.36
  15  11   1   22.40   17.31
  15  11   1   16.01   13.63
  14 -12  -1   12.68    7.68
  14  12  -1    7.68   10.93
  14  12  -1   11.00   11.82
  12 -12  -1   -0.69    4.03
  12  12  -1    2.28    7.42
  12  12  -1   -6.17    4.56
  10 -12  -1   38.44    5.03
  10  12  -1   29.96   15.52
  10  12  -1   38.94   13.89
  10  12  -1   37.68   13.15
   8  12  -1    8.31    7.22
   8  12  -1    0.40    5.42
   8  12  -1   -3.20    3.73
  -6 -12   1  167.80   22.26
   6  12  -1  160.38   30.74
   6  12  -1  151.34   16.48
   6  12  -1  129.21   13.96
   4 -12  -1    0.64    3.82
  -4 -12   1    0.56    5.10
   4  12  -1    0.22    5.53
   4  12  -1    4.73    5.01
   4  12  -1    9.46    4.78
  -2 -12   1  159.18   18.61
   2 -12  -1  137.40   15.02
   2  12  -1  146.35   18.88
  -2  12   1  129.64   14.93
   2  12  -1  142.24    6.87
   0 -12   1    5.78    6.89
   0 -12  -1    6.42    7.36
   0  12   1    8.12    7.31
   0  12  -1    7.10    8.10
  -2 -12  -1  182.09   20.68
   2 -12   1  165.77   16.26
   2  12   1  177.97   20.84
  -2  12  -1  168.78   17.34
   4 -12   1    1.39    4.21
   4 -12   1    0.47    2.82
  -4 -12  -1   -0.81    5.01
   4  12   1    6.51    5.06
   4  12   1    4.71    6.76
   4  12   1    5.75    4.22
  -6 -12  -1  359.74   32.95
   6 -12   1  308.79   11.89
   6  12   1  300.47   22.56
   6  12   1  333.25   31.96
   6  12   1  308.27   22.22
   8 -12   1    9.16    2.76
   8  12   1    5.89   10.12
   8  12   1    4.23    5.87
   8  12   1   12.63    8.37
  10 -12   1  186.21   11.37
  10  12   1  211.82   25.10
  10  12   1  190.98   22.46
  10  12   1  198.21   28.35
  12 -12   1   -0.26    4.07
  12  12   1   12.87    9.82
  12  12   1    4.31    8.94
  14 -12   1  105.30   14.05
  14  12   1  126.15   30.40
  14  12   1  137.76   29.83
  13 -13  -1   13.04    6.70
  13  13  -1   39.76   16.57
  13  13  -1   27.25   16.55
  11  13  -1   15.03    9.46
  11  13  -1   24.34   12.72
   9  13  -1   62.87   22.40
   9  13  -1   35.56   12.61
   7  13  -1   26.72    9.34
   7  13  -1   39.02   16.30
   7  13  -1   36.63   11.28
  -5 -13   1  116.18   23.93
   5  13  -1   76.26   10.86
   5  13  -1   89.18   21.79
   5  13  -1  106.54   10.86
  -3 -13   1   56.23   17.22
   3  13  -1   51.58    5.37
   3  13  -1   47.87   14.84
   3  13  -1   40.81    5.52
   1 -13  -1   51.18   14.20
  -1  13   1   40.53   12.91
   1  13  -1   93.95   20.47
   1 -13   1  103.32   14.35
  -1  13  -1   96.89   17.79
  -3 -13  -1   33.14   12.60
   3  13   1   21.12   11.16
   3  13   1   31.84    4.18
   3  13   1   38.30    4.56
  -5 -13  -1  145.15   27.05
   5  13   1  116.91   12.64
   5  13   1  109.51   11.32
   5  13   1  119.20   27.26
   7  13   1   36.02   10.64
   7  13   1   49.91   12.36
   7  13   1   33.61   13.10
   9  13   1   67.03   22.66
   9  13   1   62.93   15.66
  11  13   1    9.11   10.08
  11  13   1   21.13   14.22
  13 -13   1   10.89    6.13
  13  13   1   48.17   17.80
  13  13   1   25.41   13.82
  12  14  -1   41.49   22.58
  12  14  -1   33.16   14.74
  10  14  -1    5.58    7.25
  10  14  -1    9.47   10.82
   8  14  -1   95.85   20.17
   8  14  -1   97.72   23.29
   8  14  -1  119.82   22.05
   6  14  -1   12.25    5.87
   6  14  -1    2.64    5.48
   6  14  -1    0.82    7.52
  -4 -14   1  123.83   27.24
   4 -14  -1  118.13   13.90
   4  14  -1  166.66   31.94
   4  14  -1   99.90    8.72
   4  14  -1  101.22    9.65
  -2 -14   1    4.99    7.74
   2 -14  -1   -1.26    4.75
   2  14  -1    2.97    6.97
  -2  14   1    0.64    5.92
   0 -14   1  288.97   25.81
   0 -14  -1  239.59   25.33
   0  14   1  302.13   26.39
   0  14  -1  319.29   27.18
   2 -14   1   -1.01    4.80
  -2 -14  -1    7.19    7.92
   2  14   1    3.67    6.46
  -4 -14  -1  417.72   36.62
   4 -14   1  461.16   25.88
   4  14   1  430.16   17.33
   4  14   1  458.85   37.71
   4  14   1  408.75   18.47
   6 -14   1    7.39    3.81
   6  14   1    8.38    5.81
   6  14   1    8.88   10.00
   6  14   1   15.04    5.32
   8 -14   1  140.44    8.27
   8  14   1  132.34   27.28
   8  14   1  127.72   17.54
   8  14   1  120.57   15.83
  10 -14   1    3.57    2.52
  10  14   1    2.45    8.86
  10  14   1    3.95    6.69
  12 -14   1   67.32    7.63
  12  14   1   55.23   24.73
  12  14   1   75.66   21.42
  11  15  -1   28.13   16.12
  11  15  -1    0.20    8.65
   9  15  -1   15.96   10.31
   9  15  -1    3.50    9.80
   7  15  -1   47.09   11.97
   7  15  -1   20.57   11.17
   7  15  -1   44.69   11.94
   5 -15  -1   50.48   12.03
   5  15  -1   37.08    7.82
   5  15  -1   23.44   13.37
  -3 -15   1   30.07   14.57
   3 -15  -1    9.28    7.95
   3  15  -1   29.11   12.07
   1 -15  -1   53.19   15.70
   1  15  -1   21.74   11.24
  -1  15   1   64.92   17.11
   1 -15   1   27.93   11.57
  -1 -15  -1   15.40   10.90
   1  15   1   11.86    8.78
  -1  15  -1   25.10   10.92
   3 -15   1   15.19    8.08
  -3 -15  -1   44.35   17.56
   3  15   1   36.00   14.21
   5  15   1   45.19   15.48
   5  15   1   46.09    6.68
   7  15   1   59.57   18.16
   7  15   1   76.10   16.17
   7  15   1   73.14   15.25
   9  15   1   17.20   16.04
   9  15   1   17.04    9.05
  11  15   1   17.16   17.59
   8  16  -1   -0.03    4.12
   8  16  -1    3.62   10.94
   8  16  -1   10.17    7.16
   6  16  -1   63.59   23.74
   4 -16  -1    9.96    6.57
   2 -16  -1   56.46   16.04
   2  16  -1   34.70   14.74
   0 -16  -1    4.48    8.48
   0 -16   1   -3.15    4.17
   0  16   1    2.65    7.00
   2 -16   1  183.01   23.48
  -2  16  -1  187.77   22.40
   2  16   1  192.72   23.86
   4 -16   1    7.14    5.78
   4  16   1    5.93    8.66
   6  16   1  156.38   33.63
   8  16   1   12.17   11.60
   8  16   1    2.51    5.65
   8  16   1    6.53    7.36
   7  17  -1    0.83    3.43
   7  17  -1    0.13    3.33
   7  17  -1    7.53   12.59
   5 -17  -1   27.02   10.99
   5  17  -1   21.74   15.33
   3 -17  -1   18.09   10.71
   3  17  -1    0.68    9.14
   1 -17  -1   17.76   11.77
   1  17  -1   80.40   19.94
   1 -17   1   11.22   10.60
   1  17   1   40.69   14.18
  -1  17  -1   35.88   14.77
   3 -17   1   39.96   12.88
   3  17   1    4.04    9.92
   5  17   1   35.33   15.70
   7  17   1    4.15   11.20
   7  17   1    1.12    3.47
   7  17   1   -0.34    2.79
   4 -18  -1   18.53    9.96
   4  18  -1    6.57   11.32
   2 -18  -1    0.57    4.88
   2  18  -1   -3.57    7.35
   0  18  -1  139.22   27.42
   2 -18   1    6.81    9.75
   2  18   1    9.55    8.18
   4  18   1   91.63   25.42
  18   0  -2    4.33    8.70
  18   0  -2    1.08    6.07
  16   0  -2  102.41   24.45
  16   0  -2   85.61   17.61
  14   0  -2    1.04    5.54
  14   0  -2    0.19    5.93
  12   0  -2  245.71   20.70
  12   0  -2  262.76   24.24
 -12   0   2  269.54   20.13
  10   0  -2    2.27    3.88
  10   0  -2    2.07    4.79
 -10   0   2   -1.78    2.64
  -8   0   2  112.94   10.73
   8   0  -2  127.05   12.28
  -6   0   2    3.19    3.14
   6   0  -2    1.78    2.91
   4   0  -2  344.74   15.11
  -4   0   2  328.77   14.14
   2   0  -2   -0.89    1.23
   2   0   2    0.51    1.69
  -2   0  -2    0.30    1.78
  -2   0  -2    0.21    1.41
   2   0   2    0.35    1.38
   4   0   2 7612.32  246.04
   4   0   2 8046.00  579.10
  -4   0  -2 7457.32  534.95
  -4   0  -2 7545.30  257.22
  -6   0  -2    1.20    3.08
   6   0   2    2.06    3.10
   6   0   2    0.46    3.42
  -8   0  -2  856.39   33.31
   8   0   2  864.06   36.61
   8   0   2  849.65   32.71
 -10   0  -2   -0.65    3.44
  10   0   2    1.05    3.76
  10   0   2   -2.95    3.77
  12   0   2  138.60   14.54
 -12   0  -2  128.97   14.09
  12   0   2  116.09   16.62
  14   0   2   -0.09    6.41
  14   0   2    4.37    5.97
 -14   0  -2   -1.06    4.20
 -16   0  -2   57.98   15.47
  16   0   2   47.18   12.81
  16   0   2   59.79   17.50
  18   0   2    5.84    9.05
  17  -1  -2   52.51   14.95
  17  -1  -2   32.06   15.19
  17   1  -2    5.57    7.90
  17   1  -2   15.19   11.57
  15  -1  -2   -1.84    6.28
 -15  -1   2   13.96    8.11
  15  -1  -2    2.47    4.55
  15   1  -2   15.37   11.46
  15   1  -2   21.07   10.89
  13  -1  -2  103.81   20.68
 -13  -1   2   56.01   14.26
  13  -1  -2   88.61   12.14
  13   1  -2   67.39   15.94
 -11  -1   2   96.85   12.29
  11   1  -2   87.13   12.79
  11   1  -2  108.20   20.58
  -9  -1   2   41.18    9.74
   9  -1  -2   71.67    9.21
   9   1  -2   40.23   10.21
   9   1  -2   19.51    8.28
   7  -1  -2   47.24    9.01
  -7   1   2   44.43    8.06
  -5  -1   2   49.44    8.66
   5   1  -2   42.75    8.26
  -3  -1   2   97.10    7.62
   3   1  -2   93.73    7.75
  -1  -1   2  341.15   11.90
  -1  -1   2  373.65   11.61
   1   1  -2  346.10   11.12
  -1  -1  -2  204.50    8.24
  -1  -1  -2  221.62    9.13
   1   1   2  227.54    9.15
   1   1   2  203.20    7.99
  -3  -1  -2   66.89    6.86
  -3  -1  -2   71.28    6.97
   3   1   2   74.17    6.83
   3   1   2   83.15    7.37
   5  -1   2  280.79   12.26
   5  -1   2  287.01   15.24
  -5   1  -2  268.78   12.69
  -7  -1  -2  172.88   14.37
   7   1   2  216.07   16.73
   7   1   2  193.60   14.84
   9  -1   2  130.42   13.96
   9  -1   2  119.95   10.83
  -9   1  -2  144.23   11.98
  11  -1   2   61.24   11.83
  11  -1   2   55.14   13.98
 -11   1  -2   52.61   10.29
  13  -1   2  142.52   18.37
  13  -1   2  152.86   14.23
  13   1   2   82.52   19.46
 -13   1  -2  157.67   14.64
  15  -1   2   22.30    8.17
  15  -1   2    7.96    8.91
 -15  -1  -2   31.33   11.35
  15   1   2   39.26   15.09
 -15   1  -2    9.90    5.81
  15   1   2   13.66    7.80
  17  -1   2   46.39   16.84
 -17  -1  -2   15.60    8.67
  17   1   2   34.46   12.16
  17   1   2   26.52   13.40
  18  -2  -2   76.03   21.85
  18   2  -2   68.17   20.51
  18   2  -2  101.07   25.95
  16  -2  -2   -0.33    4.39
 -16  -2   2   -0.53    4.21
  16  -2  -2    1.86    6.57
  16   2  -2   -1.62    4.98
  16   2  -2    3.38    8.43
  14  -2  -2  144.09   14.14
  14  -2  -2  157.51   27.52
 -14  -2   2  126.69   17.23
  14   2  -2  142.15   26.94
  14   2  -2  123.34   18.05
 -12  -2   2    4.41    5.95
  12  -2  -2    2.96    4.68
  12  -2  -2    8.04    7.40
  12   2  -2    4.07    6.96
  12   2  -2   -3.28    2.98
  10  -2  -2  278.14   17.33
 -10  -2   2  294.40   21.83
  10   2  -2  266.78   22.04
  10   2  -2  286.91   23.93
   8  -2  -2   -2.87    1.67
  -8  -2   2   -1.95    2.96
   8   2  -2    3.39    4.26
   8   2  -2   -1.88    3.20
  -6  -2   2 1196.22   42.01
   6  -2  -2 1244.09   34.14
   6   2  -2 1257.77   43.65
  -4  -2   2    0.68    2.45
   4   2  -2    1.15    2.64
  -2  -2   2  574.43   20.84
   2   2  -2  572.24   20.99
   0  -2  -2    0.73    1.13
   0  -2   2    0.82    1.47
   0  -2   2   -0.24    1.09
   0  -2  -2    0.86    1.78
   0   2   2   -0.23    0.87
   0   2   2    0.72    1.50
   0   2  -2   -0.34    1.12
   0   2  -2   -0.03    1.31
   2  -2   2  214.72    7.68
  -2  -2  -2  189.82   10.61
  -2  -2  -2  211.69   11.95
   2   2   2  196.35   10.38
   4  -2   2   -0.31    2.01
  -4  -2  -2    0.56    3.05
  -4  -2  -2   -0.07    2.15
   4   2   2   -0.78    2.85
   4   2   2   -2.37    2.23
   6  -2   2 3653.92  439.91
  -6  -2  -2 3679.43  513.31
  -6  -2  -2 3391.38  204.49
   6  -2   2 3304.22  152.77
   6   2   2 3563.08  198.55
  -6   2  -2 3611.76  409.09
  -6   2  -2 3377.25  171.72
   6   2   2 3851.14  552.74
   8  -2   2    2.33    3.97
  -8  -2  -2    1.81    3.67
   8   2   2   -0.65    3.01
   8   2   2   -2.01    3.83
 -10  -2  -2  326.42   23.84
  10  -2   2  342.11   23.32
  10  -2   2  358.98   17.67
  10   2   2  381.50   27.05
  10   2   2  363.13   24.92
 -10   2  -2  363.38   18.45
 -12  -2  -2    2.65    5.68
  12  -2   2   -3.48    4.24
  12   2   2    2.73    6.04
  12   2   2    0.39    4.64
  14  -2   2   11.19    8.97
 -14  -2  -2    8.73    7.67
  14   2   2    4.47    6.24
  14   2   2    8.57    8.75
  16  -2   2    5.62    7.35
 -16  -2  -2   -1.35    4.72
  16   2   2    0.79    5.50
  16   2   2    9.37    9.43
 -18  -2  -2  101.54   23.31
  18  -2   2  119.34   28.07
  18   2   2   97.64   20.46
  18   2   2  125.78   28.91
 -17  -3   2   30.14   15.55
  17  -3  -2   24.63   12.81
  17   3  -2   56.81   18.70
  17   3  -2   30.71   13.83
 -15  -3   2    1.21    5.80
  15  -3  -2   13.91    9.56
  15   3  -2    3.31    7.71
  15   3  -2    0.50    6.80
 -13  -3   2   77.63   17.34
  13   3  -2   77.80   18.84
  13   3  -2   67.13   18.32
 -11  -3   2   54.37   13.94
  11  -3  -2   88.56   12.36
  11   3  -2   37.32   12.56
  11   3  -2   53.02   14.53
  -9  -3   2  146.20   15.75
   9   3  -2  164.95   17.27
   9   3  -2  144.72   16.62
  -7  -3   2  139.07   14.26
   7   3  -2  127.31   14.21
   7   3  -2  137.06   14.73
  -5  -3   2  433.01   23.02
  -3  -3   2   10.74    4.61
   3   3  -2   12.85    4.60
  -1  -3   2  249.44   13.01
  -1  -3   2  250.41   11.07
   1   3  -2  267.11   13.76
   1   3  -2  256.54   10.23
  -1  -3  -2  101.18    8.62
  -1  -3  -2   94.40    6.73
   1   3   2   98.37    8.25
   1   3   2  109.08    6.40
  -3  -3  -2   32.27    7.51
  -3  -3  -2   39.97    9.33
   3   3   2   27.49    6.41
   3   3   2   23.10    6.20
  -5  -3  -2  731.58   31.04
  -5  -3  -2  713.03   31.54
   5   3   2  725.25   30.32
   5   3   2  717.21   31.50
  -7  -3  -2  195.54   17.26
   7   3   2  183.17   16.70
   7   3   2  186.40   16.66
  -9  -3  -2  184.76   18.24
   9   3   2  210.91   19.59
   9   3   2  179.36   17.89
 -11  -3  -2   41.12   11.57
  11   3   2   24.99    9.66
  11   3   2   23.29    9.77
 -13  -3  -2  104.89   21.73
  13   3   2  127.80   25.14
  13   3   2   89.41   18.29
  15  -3   2   23.23   11.20
 -15  -3  -2   11.11    8.25
  15   3   2    2.93    7.09
  15   3   2    4.16    8.52
 -17  -3  -2   55.85   19.09
  17   3   2   71.60   21.18
  17   3   2   58.96   19.90
  18  -4  -2   -2.37    6.56
  18   4  -2   -0.08    8.13
  18   4  -2   -1.26    5.93
  16  -4  -2  149.74   30.05
 -16  -4   2  171.48   32.60
  16   4  -2  139.22   30.59
  16   4  -2  110.42   26.75
  14  -4  -2    9.26    7.16
 -14  -4   2   13.62    7.84
  14   4  -2    1.45    5.83
  14   4  -2    2.85    6.41
 -12  -4   2  289.52   25.58
  12  -4  -2  304.42   23.05
  12   4  -2  277.96   26.63
  12   4  -2  291.69   27.69
 -10  -4   2    3.99    5.40
  10   4  -2    1.01    5.31
  10   4  -2    1.86    5.89
  -8  -4   2  364.56   25.43
   8   4  -2  372.40   26.44
   8   4  -2  409.76   27.15
  -6  -4   2    5.16    4.68
   6   4  -2    2.71    4.68
   6   4  -2    2.19    3.86
   4  -4  -2 4672.97  114.70
  -4  -4   2 4516.61  552.07
  -4  -4   2 4691.29  558.04
   4  -4  -2 4789.54  110.17
  -4   4   2 5344.98  234.95
   4   4  -2 4631.26  221.40
   4   4  -2 4878.61  233.66
  -4   4   2 3850.67  208.73
   2  -4  -2   -0.14    1.73
  -2  -4   2   -0.47    2.47
   2   4  -2   -1.73    2.07
   2   4  -2   -1.35    2.45
   2   4  -2    0.40    2.32
   0  -4   2 2826.53  116.87
   0  -4   2 2688.70  272.47
   0  -4  -2 2491.53  244.21
   0  -4  -2 2829.61  115.32
   0   4   2 2486.23  262.73
   0   4  -2 2867.34  112.23
  -2  -4  -2   -0.36    2.50
  -2  -4  -2    0.00    2.53
   2  -4   2    0.44    1.52
   2  -4   2   -0.09    1.10
  -2   4  -2   -0.11    1.64
   2   4   2   -0.30    2.46
   2   4   2    1.66    2.94
  -4  -4  -2 1282.05   45.58
  -4  -4  -2 1316.10   43.64
   4  -4   2 1286.70   31.03
   4   4   2 1300.85   41.90
   4   4   2 1312.68   45.83
  -6  -4  -2   -0.74    3.32
   6  -4   2    1.20    2.92
   6   4   2   -0.94    3.78
   6   4   2   -1.60    3.64
  -8  -4  -2  348.28   25.35
   8  -4   2  341.78   18.95
   8   4   2  342.77   24.47
   8   4   2  346.82   25.30
  10  -4   2   -1.27    3.66
 -10  -4  -2    0.47    4.35
  10   4   2    1.34    6.04
  10   4   2    1.79    5.14
  12  -4   2  218.59   19.49
 -12  -4  -2  221.99   22.69
  12   4   2  202.82   21.88
  12   4   2  192.75   22.08
  14  -4   2   -2.27    4.64
 -14  -4  -2    2.98    6.65
  14   4   2    1.76    6.76
  14   4   2    1.44    6.16
 -16  -4  -2   71.00   20.43
  16  -4   2  103.59   22.89
  16   4   2   87.58   23.38
  16   4   2   74.96   19.96
  18  -4   2   -2.08    7.28
  18   4   2    1.77    7.75
  18   4   2    9.32   14.45
  17  -5  -2   49.91   19.54
  17   5  -2   27.44   13.59
  17   5  -2   36.11   19.97
 -15  -5   2   48.87   16.74
  15   5  -2   56.29   18.98
  15   5  -2   40.49   16.24
 -13  -5   2   62.58   16.05
  13   5  -2   61.83   19.50
  13   5  -2   54.30   17.16
 -11  -5   2  132.37   17.61
  11   5  -2  119.91   21.95
  11   5  -2  148.05   19.41
  -9  -5   2   57.22   14.57
   9   5  -2   53.94   14.97
   9   5  -2   54.12   14.76
  -7  -5   2  117.31   14.31
   7   5  -2  111.52   14.79
   7   5  -2  123.60   14.77
  -5  -5   2   20.91    7.95
   5   5  -2   19.60    7.53
   5   5  -2   18.37    7.23
  -3  -5   2   77.12   10.00
   3   5  -2   75.33   10.28
   3   5  -2   80.78    8.30
   3   5  -2   76.09    9.17
  -1  -5   2  216.15   14.46
  -1  -5   2  237.34   12.41
   1   5  -2  200.38   11.33
   1   5  -2  206.35    9.61
   1   5  -2  231.21   15.39
  -1  -5  -2   68.56    6.90
  -1  -5  -2   76.05    8.97
   1   5   2   75.52    8.92
   1   5   2   84.11    6.33
   1   5   2   66.45    5.53
  -3  -5  -2   60.50    8.32
  -3  -5  -2   62.03   13.20
   3   5   2   79.14   14.47
   3   5   2   65.87    8.04
  -5  -5  -2   88.75   15.12
  -5  -5  -2   71.60   13.75
   5   5   2   81.26   15.13
   5   5   2   75.41   13.59
  -7  -5  -2  102.75   13.91
   7   5   2  104.99   14.31
   7   5   2   90.96   12.51
  -9  -5  -2   92.27   18.22
   9   5   2   85.65   18.13
   9   5   2   79.04   16.55
 -11  -5  -2  118.95   16.83
  11   5   2  101.60   21.31
  11   5   2  148.57   26.41
 -13  -5  -2   37.68   14.83
  13   5   2   41.14   14.24
  13   5   2   41.57   14.06
  15  -5   2   23.28   10.50
 -15  -5  -2   38.60   15.51
  15   5   2   41.30   15.95
  15   5   2   17.76   12.80
  17  -5   2   57.21   17.06
  17   5   2   39.18   18.80
  17   5   2   26.03   10.92
  16  -6  -2    9.40    8.75
  16   6  -2    3.24    7.90
  16   6  -2    3.69    8.37
  14  -6  -2  322.72   25.46
 -14  -6   2  337.52   32.29
  14   6  -2  271.97   29.47
  14   6  -2  314.06   32.00
  12  -6  -2    4.81    5.30
 -12  -6   2   14.88    8.26
  12   6  -2   -3.30    3.89
  12   6  -2    2.95    7.22
 -10  -6   2  310.00   27.56
  10   6  -2  315.00   28.67
  10   6  -2  325.82   27.65
  -8  -6   2    0.40    4.15
   8   6  -2    3.04    5.06
   8   6  -2    2.03    4.90
  -6  -6   2 1467.03   56.74
   6   6  -2 1584.95   55.71
   6   6  -2 1516.59   59.00
  -4  -6   2   -1.03    3.43
   4   6  -2   -2.26    2.79
   4   6  -2    2.14    4.28
   4   6  -2   -1.48    3.06
  -2  -6   2 2530.69   71.47
   2  -6  -2 2515.56   63.71
   2   6  -2 2548.77   64.34
   2   6  -2 2578.42   73.08
   0  -6   2    0.49    2.48
   0  -6   2    2.45    3.17
   0  -6  -2    1.85    3.20
   0  -6  -2    1.38    2.56
   0   6   2    0.24    3.08
   0   6  -2    1.23    1.63
   0   6  -2   -0.39    1.78
   0   6  -2    0.39    3.16
  -2  -6  -2  341.51   21.50
   2  -6   2  316.33   15.15
   2  -6   2  318.46   10.44
  -2  -6  -2  304.51   17.61
   2   6   2  342.97   21.36
  -2   6  -2  339.93   16.39
   2   6   2  313.76   14.99
  -4  -6  -2   -0.06    3.01
   4  -6   2   -0.23    1.39
  -4  -6  -2    5.52    5.03
   4   6   2   -1.67    3.19
   4   6   2    3.15    3.69
  -6  -6  -2  185.11   18.78
   6  -6   2  195.64   10.14
   6   6   2  223.20   20.47
   6   6   2  208.82   17.65
  -8  -6  -2    6.56    6.14
   8  -6   2    1.72    3.09
   8   6   2    0.21    4.60
   8   6   2    5.22    6.83
  10  -6   2  477.31   24.38
 -10  -6  -2  455.67   33.55
  10   6   2  427.17   32.83
  10   6   2  407.94   30.47
 -12  -6  -2    2.22    5.80
  12  -6   2    0.22    4.61
  12   6   2   -1.17    6.69
  12   6   2    0.95    6.50
 -14  -6  -2   83.61   22.35
  14  -6   2  105.55   20.14
  14   6   2   90.39   21.46
  14   6   2  113.64   24.43
  16  -6   2   -0.92    6.08
  16   6   2   -5.32    4.11
  16   6   2   11.03   11.63
  17  -7  -2    3.31    8.34
  17   7  -2   16.58   13.97
  17   7  -2   28.08   17.77
  15  -7  -2   25.75   11.08
  15   7  -2   22.47   13.60
  15   7  -2    8.35   10.74
 -13  -7   2   99.77   23.56
  13   7  -2  133.30   29.08
  13   7  -2   99.08   22.77
 -11  -7   2   66.34   18.26
  11   7  -2   72.40   20.24
  11   7  -2   64.12   20.34
  -9  -7   2  105.44   21.59
   9   7  -2  109.52   22.13
   9   7  -2  100.78   20.27
  -7  -7   2   18.23    8.51
   7   7  -2   16.00    8.41
   7   7  -2   21.11    9.50
  -5  -7   2  156.61   16.73
   5   7  -2  169.18   15.73
   5   7  -2  139.55   13.38
   5   7  -2  156.26   17.48
  -3  -7   2   17.25    7.66
   3   7  -2    6.38    5.43
   3   7  -2   16.45    6.15
   3   7  -2   19.73    5.86
  -1  -7   2  350.71   21.49
   1   7  -2  361.72   15.54
   1   7  -2  378.57   13.41
   1   7  -2  361.21   22.39
  -1  -7  -2  240.59   14.81
  -1  -7  -2  245.50   18.43
   1   7   2  247.22   10.17
   1   7   2  238.88   10.28
   1   7   2  241.26   18.03
  -3  -7  -2   11.38    6.14
  -3  -7  -2   19.73    7.27
   3  -7   2   24.94    2.86
   3  -7   2   25.25    5.49
  -3   7  -2   25.49    6.38
   3   7   2   12.34    6.95
  -5  -7  -2  122.35   15.47
  -5  -7  -2  151.10   15.52
   5   7   2  169.16   15.07
   5   7   2  127.70   15.72
  -7  -7  -2   73.22   17.99
   7   7   2   57.33   14.02
   7   7   2   45.10   13.38
  -9  -7  -2   56.39   14.76
   9   7   2   69.45   17.49
   9   7   2   66.17   15.74
 -11  -7  -2   61.22   16.52
  11   7   2   64.93   19.40
  11   7   2   40.31   14.12
 -13  -7  -2   80.70   24.04
  13   7   2   94.65   21.83
  13   7   2   77.99   21.15
  15  -7   2   35.98   13.54
  15   7   2    0.50    6.66
  15   7   2    3.13    8.68
  17   7   2   37.27   23.66
  17   7   2   41.10   17.84
  16  -8  -2  103.12   22.33
  16   8  -2   85.37   27.57
  16   8  -2   80.68   26.16
  14  -8  -2    3.18    5.94
  14   8  -2    3.26    8.43
  14   8  -2    0.67    6.73
  12  -8  -2  239.19   18.43
 -12  -8   2  264.48   29.11
  12   8  -2  217.41   26.84
  12   8  -2  210.01   25.64
 -10  -8   2   -0.82    5.12
  10   8  -2    2.49    6.79
  10   8  -2    0.62    5.71
  -8  -8   2  270.00   25.52
   8   8  -2  245.95   25.46
   8   8  -2  279.00   23.97
  -6  -8   2   -0.20    3.82
   6   8  -2    1.14    6.04
   6   8  -2   -0.23    3.91
   6   8  -2    0.66    4.84
   4  -8  -2  944.96   31.86
  -4  -8   2  931.04   43.60
   4   8  -2  913.82   37.16
   4   8  -2  890.77   33.87
   4   8  -2  987.96   45.90
  -2  -8   2    1.45    3.65
   2  -8  -2   -2.09    1.60
   2  -8  -2    0.61    3.18
   2   8  -2    1.77    3.23
   2   8  -2    0.45    2.40
   2   8  -2   -1.73    2.91
  -2   8   2   -2.39    2.13
   0  -8  -2  332.23   16.78
   0  -8   2  315.50   16.11
   0  -8   2  307.46   19.96
   0  -8  -2  293.15   20.53
   0   8   2  321.13   20.83
   0   8  -2  326.03   21.36
  -2  -8  -2   -1.40    3.28
   2  -8   2   -2.11    1.58
   2  -8   2   -0.15    2.66
  -2  -8  -2    3.57    4.41
   2   8   2   -1.76    2.28
   2   8   2   -0.52    2.34
  -2   8  -2    2.76    3.79
   2   8   2    0.81    2.61
  -4  -8  -2  443.06   26.73
  -4  -8  -2  451.20   29.63
   4  -8   2  465.49   13.12
   4   8   2  376.69   21.55
   4   8   2  415.76   28.66
   6  -8   2    3.03    2.52
   6   8   2   -1.55    3.41
   6   8   2    3.32    5.25
   8  -8   2  257.82   13.69
  -8  -8  -2  279.69   26.89
   8   8   2  301.37   24.16
   8   8   2  292.76   27.01
 -10  -8  -2    1.35    6.16
  10  -8   2    3.92    4.44
  10   8   2    3.84    6.32
  10   8   2   -0.34    5.81
  12  -8   2   79.00   10.84
 -12  -8  -2   94.47   24.65
  12   8   2  116.46   26.82
  12   8   2   87.34   19.98
  14  -8   2   -0.95    4.96
  14   8   2   -1.43    6.22
  14   8   2    3.03    7.73
  16  -8   2   38.63   13.62
  16   8   2   41.98   17.71
  16   8   2   12.44   11.43
  15  -9  -2   10.54    8.36
  15   9  -2    5.85   11.63
  15   9  -2   14.41   13.48
  13  -9  -2   36.65   10.39
  13   9  -2    7.74    9.87
  13   9  -2   25.56   13.44
 -11  -9   2   50.60   18.17
  11  -9  -2   37.00    8.79
  11   9  -2   86.64   19.98
  11   9  -2   79.29   23.03
   9   9  -2   71.17   15.81
   9   9  -2   43.25   13.12
   9   9  -2   61.27   19.71
  -7  -9   2  159.63   20.01
   7   9  -2  215.14   20.51
   7   9  -2  179.01   17.81
   7   9  -2  189.30   22.38
  -5  -9   2   88.54   17.46
   5   9  -2   86.30   10.94
   5   9  -2  106.29   21.67
   5   9  -2   90.57   16.12
  -3  -9   2   76.97   15.30
   3   9  -2   63.66    8.81
   3   9  -2   63.24    7.49
   3   9  -2   66.66   15.69
  -1  -9   2   55.09   13.11
   1   9  -2   54.39   12.39
   1   9  -2   40.88    4.80
   1   9  -2   38.54    4.07
  -1  -9  -2   63.35    8.98
  -1  -9  -2   63.57   13.49
   1   9   2   47.19    3.52
   1   9   2   72.38   14.12
   1   9   2   46.63    3.47
  -3  -9  -2   89.28   17.97
  -3  -9  -2   74.48   10.76
   3   9   2   76.28   15.17
   3   9   2   72.30    8.27
   3   9   2   66.69    7.96
  -5  -9  -2  105.53   20.60
   5   9   2   91.82   11.99
   5   9   2  101.57   11.88
   5   9   2  116.98   16.69
  -7  -9  -2  190.61   22.16
   7   9   2  217.29   23.69
   7   9   2  195.40   18.80
   9  -9   2  101.16    8.97
   9   9   2   51.74   16.91
   9   9   2   68.46   18.21
 -11  -9  -2   31.96   13.52
  11   9   2   38.22   13.36
  11   9   2   38.49   14.27
  13  -9   2   55.56   12.55
  13   9   2   37.73   16.11
  13   9   2   31.81   13.80
  15  -9   2    3.20    6.89
  15   9   2    8.56   12.49
  15   9   2    4.72    9.68
  14 -10  -2  107.61   15.46
  14  10  -2  137.22   34.50
  14  10  -2  129.24   30.72
  12 -10  -2   -1.04    3.43
  12  10  -2   10.27   10.74
  12  10  -2    0.45    7.68
  10 -10  -2  197.36   12.05
  10  10  -2  196.20   25.97
  10  10  -2  184.00   21.73
   8  10  -2    5.07    7.11
   8  10  -2    0.97    6.06
   8  10  -2    2.31    5.59
  -6 -10   2  405.34   31.93
   6  10  -2  458.04   26.56
   6  10  -2  455.05   35.38
   6  10  -2  442.65   28.12
   4 -10  -2    0.08    3.04
  -4 -10   2    4.92    6.24
   4  10  -2    2.16    4.78
   4  10  -2    4.65    5.78
   4  10  -2   -3.08    2.67
  -2 -10   2   35.74   11.60
   2 -10  -2   26.45    6.29
   2 -10  -2   21.91    8.59
   2  10  -2   27.22    9.99
   2  10  -2   36.27    6.24
  -2  10   2   12.76    6.64
   2  10  -2   29.75    6.57
   0 -10  -2    1.60    4.43
   0 -10   2    0.62    4.11
   0 -10  -2    3.42    4.66
   0  10   2    4.12    6.08
   0  10  -2    1.04    3.95
   2 -10   2  347.87   16.12
  -2 -10  -2  315.22   22.01
  -2 -10  -2  321.88   25.64
   2 -10   2  386.26   22.16
  -2  10  -2  331.24   21.68
   2  10   2  344.02   14.33
   2  10   2  343.55   26.26
   2  10   2  345.60   14.10
   4 -10   2    2.17    3.51
   4 -10   2    5.32    2.56
  -4 -10  -2    6.23    7.15
   4  10   2    3.55    4.36
   4  10   2    1.77    6.52
  -4  10  -2    0.96    3.48
   4  10   2    7.05    5.39
   6 -10   2 1043.70   25.84
  -6 -10  -2 1004.28   53.89
   6  10   2  954.65   41.55
   6  10   2  964.57   42.10
   6  10   2  977.30   52.87
   8 -10   2   -1.01    2.51
   8  10   2    2.14    6.30
   8  10   2    7.72    8.10
 -10 -10  -2  142.70   35.69
  10 -10   2  164.51   12.23
  10  10   2  149.21   22.17
  10  10   2  141.19   19.42
  12 -10   2   -0.70    3.94
  12  10   2   23.04    9.92
  12  10   2    3.39    8.27
  14 -10   2   14.44    8.07
  14  10   2    0.80    9.93
  14  10   2    2.46    8.35
  15 -11  -2    4.72    7.15
  15  11  -2   16.81   14.29
  15  11  -2    3.33    9.59
  13 -11  -2   17.53    8.56
  13  11  -2   38.56   19.23
  13  11  -2   34.30   15.36
  11 -11  -2   25.40    7.30
  11  11  -2    9.17    9.10
  11  11  -2    7.15   11.59
   9  11  -2   41.52   12.36
   9  11  -2   29.86   14.61
   9  11  -2   24.86   10.78
  -7 -11   2   19.07    9.75
   7  11  -2   16.93    9.10
   7  11  -2   17.05    7.74
   7  11  -2   15.57    8.39
  -5 -11   2   59.51   15.69
   5  11  -2   71.99   14.07
   5  11  -2   60.11   17.74
   5  11  -2   60.31   11.21
   3 -11  -2   66.58   13.57
  -3 -11   2   22.50    9.94
   3  11  -2   15.69    5.84
   3  11  -2   25.33   10.74
   3  11  -2   23.40    5.65
   1 -11  -2   60.16    8.55
   1 -11  -2   68.97   14.68
  -1  11   2   91.37   17.24
   1 -11   2   46.21   11.60
  -1 -11  -2  102.93   20.43
  -1 -11  -2   74.38   10.73
   1  11   2   69.19   15.27
  -1  11  -2   31.83   10.33
  -3 -11  -2   25.86   11.66
   3 -11   2   49.64    6.17
   3 -11   2   67.30    9.24
   3  11   2   19.11    9.96
   3  11   2   24.54    6.49
  -3  11  -2   58.51   11.53
   3  11   2   37.84    7.37
  -5 -11  -2  133.06   26.93
   5  11   2  146.09   27.91
   5  11   2  108.52   12.57
  -7 -11  -2   19.17    9.89
   7  11   2   15.22    8.35
   7  11   2   11.44    8.87
   7  11   2   27.14   10.20
   9 -11   2   28.48    5.97
   9  11   2   52.13   14.69
   9  11   2   47.77   13.70
   9  11   2   45.15   15.00
  11  11   2   28.62   15.66
  11  11   2   12.08   10.17
  13  11   2   61.42   23.50
  13  11   2   54.56   18.13
  15 -11   2   25.69    9.87
  15  11   2   18.65   11.32
  15  11   2   13.69   13.97
  14 -12  -2    2.50    5.38
  14  12  -2   17.56   12.74
  14  12  -2    4.60   11.98
  12 -12  -2   89.78   10.29
  12  12  -2  135.95   28.08
  12  12  -2   90.04   28.37
  10  12  -2    0.59    6.52
  10  12  -2   -1.72    4.87
  10  12  -2    0.25    7.10
   8  12  -2   63.18   20.55
   8  12  -2   67.29   17.13
   8  12  -2   57.82   15.65
  -6 -12   2    6.99    8.39
   6  12  -2    2.87    4.40
   6  12  -2    3.75    5.97
   6  12  -2   -1.07    5.25
   4 -12  -2   65.35    6.84
  -4 -12   2   81.09   18.65
   4 -12  -2   72.43   10.03
   4  12  -2   73.44   18.09
   4  12  -2   80.09   13.48
   4  12  -2   67.38    8.24
   2 -12  -2   -0.08    3.79
  -2 -12   2   -1.93    4.50
   2 -12  -2    1.30    4.64
   2  12  -2   -4.81    3.65
   2  12  -2    2.82    2.18
  -2  12   2   -1.01    3.99
   2  12  -2    1.73    2.48
   0 -12  -2  129.66   13.66
   0 -12   2  141.24   16.52
   0 -12  -2  148.56   17.46
   0  12  -2  137.97   17.67
   0  12   2  115.86   15.76
   2 -12   2    1.34    4.34
  -2 -12  -2    4.66    6.63
   2 -12   2    4.55    4.62
   2  12   2    6.72    6.31
  -2  12  -2    1.07    5.26
  -4 -12  -2  437.23   35.05
   4 -12   2  465.01   23.59
   4 -12   2  429.25   18.27
   4  12   2  415.05   33.77
   4  12   2  440.32   21.44
   4  12   2  341.73   19.76
  -4  12  -2  446.81   23.82
   6 -12   2    6.67    2.66
  -6 -12  -2   14.20    9.82
   6  12   2    3.85    5.19
   6  12   2    1.39    6.32
   6  12   2    8.94    6.77
   8 -12   2  160.32    9.05
   8  12   2  166.32   19.75
   8  12   2  172.81   19.73
   8  12   2  170.58   24.21
  10  12   2   16.92    9.25
  10  12   2   18.01    8.73
  10  12   2    9.13   10.49
  12 -12   2   58.20   10.92
  12  12   2   29.20   13.07
  12  12   2   17.73   15.28
  14 -12   2    0.91    5.28
  14  12   2    0.30    9.21
  14  12   2    8.97    9.61
  13 -13  -2   21.14    7.20
  13  13  -2    2.71    9.36
  13  13  -2   -3.18    7.40
  11  13  -2   38.16   16.15
  11  13  -2   34.78   15.79
   9  13  -2   13.13    9.57
   9  13  -2   35.90   16.56
   7  13  -2   50.45   18.38
   7  13  -2   70.48   14.47
   7  13  -2   61.40   14.25
  -5 -13   2   38.76   16.27
   5  13  -2   47.01    9.69
   5  13  -2   42.22   15.62
   5  13  -2   39.82    9.94
  -3 -13   2   80.65   20.50
   3  13  -2   73.72    6.59
   3  13  -2   78.82    7.42
   3  13  -2   79.52   19.36
   1 -13  -2  143.15   17.24
  -1  13   2  139.54   16.53
   1  13  -2   77.54   18.09
   1 -13   2  177.47   18.28
  -1  13  -2  181.16   19.55
  -3 -13  -2   99.05   21.73
   3  13   2   95.07   19.98
   3  13   2   82.96    5.96
   3  13   2   82.89    6.03
  -5 -13  -2   52.77   17.97
   5  13   2   59.17    8.52
   5  13   2   37.59   12.96
   5  13   2   45.50   10.45
   7  13   2   89.31   16.66
   7  13   2   97.82   25.68
   7  13   2   86.13   15.84
   9  13   2   28.61   11.68
   9  13   2   13.41   11.03
  11 -13   2   27.74    5.79
  11  13   2   47.43   15.85
  11  13   2   46.06   17.04
  13  13   2    9.86   12.53
  13  13   2   12.80   11.63
  12  14  -2   -1.15    6.83
  12  14  -2   11.26   11.59
  10  14  -2   72.03   18.04
  10  14  -2   90.75   24.04
   8  14  -2    2.05    5.89
   8  14  -2    5.92    8.82
   8  14  -2    6.07    6.78
   6  14  -2  249.09   29.52
   6  14  -2  235.82   18.20
   6  14  -2  207.32   19.32
   4 -14  -2    4.91    5.40
  -4 -14   2   -0.81    5.57
   4  14  -2   -2.83    5.05
   4  14  -2    1.36    3.49
  -2 -14   2  128.87   18.48
   2 -14  -2  126.88   16.97
   2  14  -2  119.48   23.74
   0 -14  -2   -2.27    4.05
   0 -14   2   -1.62    4.69
   0  14  -2    8.06    8.70
   0  14   2    1.60    5.39
   2 -14   2  139.90   17.63
  -2 -14  -2  143.36   20.00
  -2  14  -2  170.28   17.96
   2  14   2  167.66   20.67
  -4 -14  -2   11.67    7.19
   4 -14   2    1.39    4.68
   4 -14   2    1.21    4.36
   4  14   2   13.25    4.59
   4  14   2    7.21    8.67
   6 -14   2  327.14   16.17
   6  14   2  355.41   34.71
   6  14   2  271.18   20.81
   6  14   2  332.73   21.69
   8 -14   2   14.52    3.45
   8  14   2    6.01    6.81
   8  14   2   -1.34    7.42
   8  14   2    2.75    5.27
  10 -14   2  112.70    8.47
  10  14   2  111.63   26.28
  10  14   2  122.93   23.14
  12 -14   2    5.53    3.62
  12  14   2    6.17    9.64
  12  14   2    1.11   10.62
  11  15  -2   -1.62    7.15
  11  15  -2    3.84    9.97
   9  15  -2   27.99   12.04
   9  15  -2   21.31   14.53
   7  15  -2   23.58    8.81
   7  15  -2    9.68    7.68
   7  15  -2   -3.53    5.55
   5 -15  -2   23.89    9.08
   5  15  -2   52.07   18.73
  -3 -15   2    5.04    8.65
   3 -15  -2   31.59   11.94
   3  15  -2    3.66    7.81
  -1 -15   2   35.65   13.07
   1 -15  -2    6.44    8.17
   1  15  -2   30.55   13.41
   1 -15   2   11.33    8.25
  -1 -15  -2   53.27   16.88
  -1  15  -2   32.38   12.24
   1  15   2   41.37   15.00
   3 -15   2   26.86    9.48
  -3 -15  -2    8.35   11.65
  -3  15  -2   21.98    8.59
   3  15   2   10.19    8.96
   5  15   2   65.37   16.89
   5  15   2   86.10    8.76
   7  15   2   23.52    9.36
   7  15   2   28.43    9.51
   7  15   2   23.57   11.33
   9 -15   2   11.68    4.11
   9  15   2   14.37   14.11
   9  15   2   36.26   12.53
   8  16  -2   65.88   16.68
   8  16  -2   72.09   25.48
   6  16  -2   -0.01    2.65
   6  16  -2   -2.14    2.67
   6  16  -2    4.18    9.29
   4 -16  -2  251.32   22.77
   4  16  -2  265.10   31.31
   2 -16  -2    1.68    6.15
   2  16  -2    3.07    7.00
   0 -16  -2  147.80   20.48
   0 -16   2  157.04   29.15
   0  16  -2  203.76   22.77
   0  16   2  181.84   21.34
   2 -16   2    0.43    5.47
  -2  16  -2    0.79    5.11
   2  16   2   10.94    7.92
   4 -16   2   92.54   13.40
   4  16   2   87.34   22.98
   6  16   2    0.11    2.45
   6  16   2    8.19   10.53
   8 -16   2   82.86    9.35
   8  16   2   72.02   15.74
   8  16   2   82.38   21.92
   7  17  -2   20.33   15.34
   5 -17  -2   12.36    9.10
   5  17  -2   19.83   12.91
   3 -17  -2   13.84   10.73
   3  17  -2   21.29   13.16
   1 -17  -2   62.32   19.00
   1  17  -2   28.27   13.34
   1 -17   2   32.52   13.85
   1  17   2   16.33   12.33
  -1  17  -2   29.28   12.44
   3 -17   2   24.23   11.10
   3  17   2   46.81   17.69
   5  17   2    9.09   11.54
   7  17   2   -0.81    2.85
   7  17   2    1.10    3.14
   7  17   2    3.61    9.71
   4 -18  -2    1.66    6.71
   4  18  -2   -0.56    7.41
   2 -18  -2  122.16   26.06
   2  18  -2  127.12   31.99
   0  18  -2    2.38    7.10
   2 -18   2   35.45   14.62
   2  18   2   56.96   18.03
   4  18   2    1.39    8.47
  18   0  -3   75.72   25.48
  18   0  -3   77.48   17.83
  16   0  -3    5.70    7.95
  16   0  -3   -2.84    3.84
  14   0  -3  425.58   29.70
  14   0  -3  426.60   33.29
  12   0  -3   -2.07    4.90
  12   0  -3    0.67    4.09
 -10   0   3  306.96   19.15
  10   0  -3  240.23   19.11
   8   0  -3   -0.28    2.45
  -8   0   3   -0.07    2.58
   6   0  -3  163.37   12.36
  -6   0   3  169.33   11.62
   4   0  -3    1.93    2.48
  -4   0   3   -0.96    1.66
  -2   0   3 3316.19  119.33
   2   0  -3 3423.76  285.07
   2   0  -3 3479.25  117.54
   0   0  -3   -0.38    1.05
   0   0   3   -0.21    0.91
  -2   0  -3 7421.50  400.37
   2   0   3 7218.15  416.60
   2   0   3 6935.57  195.24
  -2   0  -3 7189.27  201.46
  -4   0  -3   -1.39    2.05
   4   0   3    0.36    2.70
  -4   0  -3    1.68    2.96
   4   0   3    0.11    1.87
  -6   0  -3  920.60   32.19
   6   0   3  947.22   31.00
   6   0   3  886.32   33.67
  -8   0  -3    1.17    3.49
   8   0   3    2.83    4.47
   8   0   3   -0.69    2.60
  10   0   3 1302.04   45.32
 -10   0  -3 1272.22   46.90
  10   0   3 1325.13   52.16
  12   0   3    0.46    5.50
 -12   0  -3   -0.39    4.39
  12   0   3    6.09    4.76
  14   0   3  482.80   35.14
 -14   0  -3  509.94   32.22
  14   0   3  550.65   31.83
  16   0   3    1.98    8.26
 -16   0  -3    0.48    4.88
  18   0   3  103.21   26.58
  17  -1  -3   21.80    8.95
  17  -1  -3   12.32   11.42
  17   1  -3   58.86   19.51
  17   1  -3   37.56   15.26
  15  -1  -3   53.84   13.62
  15  -1  -3   33.50   13.75
  15   1  -3    5.73    9.59
  15   1  -3   13.93    9.63
 -13  -1   3   98.51   12.86
  13   1  -3  103.90   20.53
  13   1  -3   92.31   20.99
 -11  -1   3   57.46   12.80
  11   1  -3   45.41   14.44
  11   1  -3   48.27   12.85
  -9  -1   3   87.44   10.82
   9   1  -3  103.22   12.82
  -7  -1   3   64.96   11.67
   7   1  -3   49.10   10.35
  -5  -1   3   87.79    8.66
   5   1  -3  102.02    9.77
  -3  -1   3   33.08    6.65
   3   1  -3   26.77    5.47
   1  -1  -3  426.60   11.26
  -1   1   3  415.68   11.26
  -1  -1  -3  509.87   16.52
  -1  -1  -3  552.36   15.88
   1   1   3  546.88   15.39
  -3  -1  -3   39.69    5.56
  -3  -1  -3   46.81    7.78
   3   1   3   45.18    7.49
   3   1   3   34.45    4.85
  -5  -1  -3  302.05   17.44
  -5  -1  -3  288.90   16.62
   5   1   3  282.69   16.87
   5   1   3  309.69   16.60
  -7  -1  -3   77.76    9.92
   7   1   3   91.73   11.31
   7   1   3   66.31    9.06
  -9  -1  -3  263.88   19.54
   9   1   3  237.24   17.97
   9   1   3  204.79   18.61
 -11  -1  -3   81.80   15.66
  11   1   3   77.43   11.35
  11   1   3   82.69   17.63
  13  -1   3   65.41    9.70
  13  -1   3   86.47   19.48
 -13   1  -3   89.63   11.32
  15  -1   3   75.19   18.98
 -15  -1  -3   22.09    9.21
  15   1   3   32.87   12.41
  15   1   3   25.96   12.67
 -15   1  -3   77.91   15.71
 -17  -1  -3   47.93   16.27
  17   1   3   64.06   20.44
  17   1   3   60.11   16.50
  18  -2  -3    1.23    8.68
  18   2  -3   20.55   10.99
  18   2  -3    1.42    6.78
  16  -2  -3  124.89   14.18
  16  -2  -3  128.46   26.00
  16   2  -3  124.43   25.36
  16   2  -3  111.57   26.36
 -14  -2   3    6.80    6.54
  14  -2  -3    0.47    4.32
  14  -2  -3    5.00    7.00
  14   2  -3   -0.27    4.71
  14   2  -3    3.67    7.90
  12  -2  -3  144.42   17.01
  12  -2  -3  145.09   13.66
 -12  -2   3  152.29   16.71
  12   2  -3  146.69   18.84
  12   2  -3  152.95   18.22
  10  -2  -3    1.16    3.17
 -10  -2   3   -2.38    2.74
  10   2  -3   -0.76    4.55
  10   2  -3    1.84    5.09
  -8  -2   3  108.30   12.08
   8  -2  -3  113.76   10.05
   8   2  -3  111.98   13.20
   6  -2  -3    1.93    2.76
  -6  -2   3    0.73    3.13
   6   2  -3    2.63    3.58
  -4  -2   3   31.26    7.30
   4   2  -3   28.45    6.86
  -2  -2   3    1.01    2.50
   2   2  -3   -0.17    1.97
   2   2  -3    0.63    2.13
   0  -2   3 5077.15  145.87
   0  -2   3 5428.13  334.91
   0  -2  -3 5000.76  141.68
   0  -2  -3 5278.81  277.89
   0   2   3 5063.47  137.43
   0   2  -3 5409.69  343.60
   0   2   3 4724.08  285.80
  -2  -2  -3   -0.06    1.97
  -2  -2  -3    0.10    2.31
   2  -2   3   -0.27    1.38
   2   2   3    0.43    2.10
  -2   2  -3    0.18    1.50
   2   2   3   -1.36    1.93
  -4  -2  -3  781.34   29.23
   4  -2   3  779.81   24.39
  -4  -2  -3  803.42   29.98
   4   2   3  751.98   28.70
   4   2   3  744.14   28.04
  -6  -2  -3    5.90    5.04
  -6  -2  -3   -0.91    2.99
   6  -2   3   -1.54    2.67
   6   2   3   -0.01    2.95
   6   2   3    4.86    4.52
   8  -2   3  759.17   32.04
  -8  -2  -3  772.18   35.33
   8   2   3  800.38   36.49
   8   2   3  624.73   31.69
 -10  -2  -3    4.04    5.09
  10  -2   3    0.95    4.59
  10   2   3    4.15    5.86
 -10   2  -3    3.25    3.47
  10   2   3   -3.05    2.70
  12  -2   3  555.50   33.27
 -12  -2  -3  492.13   31.66
  12   2   3  529.47   32.18
  12   2   3  497.74   34.38
  14  -2   3    0.62    5.83
 -14  -2  -3    1.51    6.07
 -14   2  -3    4.32    4.43
  14   2   3    6.74    9.13
  14   2   3    0.42    4.52
  16  -2   3  151.68   20.33
 -16  -2  -3  164.82   21.31
  16   2   3  141.63   17.60
  16   2   3  167.28   22.92
  18  -2   3    0.42    8.23
 -18  -2  -3    1.49    6.38
  18   2   3   -1.48    5.33
  18   2   3    7.56    9.58
  17  -3  -3   49.81   17.73
  17   3  -3    3.15    7.08
  17   3  -3   22.42   14.70
 -15  -3   3   11.84    8.40
  15  -3  -3   14.49    9.86
  15   3  -3   16.66   11.75
  15   3  -3   27.85   12.50
 -13  -3   3   30.48   10.55
  13   3  -3   17.93   10.15
  13   3  -3   14.00   10.02
 -11  -3   3   83.45   16.30
  11   3  -3   87.82   18.95
  11   3  -3   74.21   17.36
  -9  -3   3   89.48   17.63
   9   3  -3   69.57   14.90
   9   3  -3   91.51   18.84
  -7  -3   3  443.37   25.38
   7   3  -3  455.85   26.91
  -5  -3   3  166.43   13.88
   5   3  -3  185.90   15.36
  -3  -3   3   30.70    7.08
   3   3  -3   24.70    6.25
   3   3  -3   31.47    6.71
  -1  -3   3   88.76    7.61
  -1  -3   3   90.67    6.58
   1   3  -3   84.03    7.78
   1   3  -3   88.15    5.91
  -1  -3  -3   35.43    7.23
  -1  -3  -3   29.37    5.30
   1   3   3   20.19    3.90
   1   3   3   25.93    5.56
  -3  -3  -3  159.34   12.59
  -3  -3  -3  138.72   10.94
   3   3   3  150.44   12.06
   3   3   3  164.02   11.24
  -5  -3  -3  235.11   17.17
  -5  -3  -3  228.86   16.63
   5   3   3  227.66   16.67
   5   3   3  195.32   14.99
  -7  -3  -3  494.17   27.95
   7   3   3  472.10   26.79
   7   3   3  464.72   26.72
  -9  -3  -3   49.38   12.67
   9   3   3   52.15   14.16
   9   3   3   84.53   17.01
 -11  -3  -3   97.77   19.05
  11   3   3  109.22   21.72
  11   3   3   70.62   15.71
 -13  -3  -3   53.98   16.00
  13   3   3   39.08   13.23
  13   3   3   29.44   10.39
  15  -3   3   12.63    9.98
 -15  -3  -3   30.15   13.59
  15   3   3   30.97   13.24
  15   3   3   39.81   13.96
 -17  -3  -3    4.50    7.40
  17  -3   3   79.63   24.27
  17   3   3    3.93   10.30
  17   3   3    6.45    8.38
  18  -4  -3  101.94   27.49
  18   4  -3   85.21   25.34
  18   4  -3   91.73   24.11
  16  -4  -3    6.01    7.99
  16   4  -3    0.14    6.98
  16   4  -3    6.27    8.93
 -14  -4   3  259.88   25.89
  14  -4  -3  239.54   22.66
  14   4  -3  260.29   27.04
  14   4  -3  275.31   28.46
  12  -4  -3    3.69    5.64
 -12  -4   3   -2.36    3.91
  12   4  -3    4.18    5.54
  12   4  -3    6.82    8.19
 -10  -4   3  397.65   28.19
  10   4  -3  448.91   31.49
  10   4  -3  385.17   29.37
  -8  -4   3    3.35    4.48
   8   4  -3   -1.50    4.09
   8   4  -3   -1.57    2.89
  -6  -4   3 1680.22   56.45
   6   4  -3 1622.84   57.15
   6   4  -3 1620.13   55.45
  -4  -4   3    2.70    3.64
   4   4  -3    2.21    4.24
   2  -4  -3   33.62    5.84
  -2  -4   3   28.76    7.36
   2   4  -3   27.41    5.51
   2   4  -3   19.63    7.23
   0  -4   3   -2.20    1.92
   0  -4   3   -1.15    1.82
   0  -4  -3   -0.36    2.35
   0  -4  -3   -0.50    1.68
   0   4  -3   -2.05    2.01
   0   4  -3    0.98    1.58
   0   4   3    1.27    1.30
   0   4   3    1.70    2.61
   2  -4   3  161.32    6.61
  -2  -4  -3  146.46   12.23
  -2  -4  -3  135.83   10.16
   2   4   3  129.12   11.36
   2   4   3  124.80    8.88
  -2   4  -3  156.26    8.51
  -4  -4  -3    0.61    2.77
   4  -4   3    3.14    2.33
  -4  -4  -3   -0.17    3.57
   4   4   3    4.11    4.24
   4   4   3    3.93    3.72
  -6  -4  -3 2547.21   75.22
  -6  -4  -3 2532.37   77.07
   6  -4   3 2534.53   62.16
   6   4   3 2595.91   73.71
   6   4   3 2602.38   76.58
  -8  -4  -3    1.38    4.55
   8  -4   3    0.33    3.08
   8   4   3    1.82    3.93
   8   4   3   -3.47    3.31
  10  -4   3 1107.73   43.35
  10   4   3 1227.99   52.92
  10   4   3 1171.88   52.20
  12  -4   3    2.62    5.14
 -12  -4  -3    4.40    7.08
  12   4   3    0.38    6.46
  12   4   3    0.99    4.76
 -14  -4  -3  136.25   26.97
  14  -4   3  119.24   16.20
  14   4   3  150.62   28.78
  14   4   3  138.09   18.45
  16  -4   3    2.40    7.54
 -16  -4  -3    0.23    5.06
  16   4   3   14.73   11.14
  16   4   3   12.70   10.07
  18  -4   3   92.53   26.37
  18   4   3   39.05   22.33
  18   4   3   39.02   15.18
  17  -5  -3   21.01   13.78
  17   5  -3   35.93   15.36
  17   5  -3   28.92   16.68
  15  -5  -3   59.79   15.58
 -15  -5   3   19.62   12.98
  15   5  -3   33.59   15.00
  15   5  -3   12.97    9.28
 -13  -5   3  150.74   28.79
  13   5  -3  132.90   26.54
  13   5  -3  104.74   21.70
 -11  -5   3   66.48   17.86
  11   5  -3   41.00   13.55
  11   5  -3   50.90   15.74
  -9  -5   3  116.30   19.96
   9   5  -3  110.62   15.35
   9   5  -3  129.21   24.29
  -7  -5   3   71.25   15.95
   7   5  -3   61.14   14.42
   7   5  -3   63.85   14.79
  -5  -5   3   75.47   10.99
   5   5  -3   76.94   10.62
   5   5  -3   75.97   11.26
  -3  -5   3   51.85    9.89
   3   5  -3   59.12    7.17
   3   5  -3   63.98   11.35
   3   5  -3   47.27    9.59
  -1  -5   3  459.64   21.94
  -1  -5   3  434.20   18.23
   1   5  -3  506.04   16.27
   1   5  -3  477.78   19.10
   1   5  -3  480.67   23.02
  -1  -5  -3  255.33   16.55
  -1  -5  -3  245.70   12.96
   1   5   3  259.12   10.62
   1   5   3  268.79   16.45
  -3  -5  -3   25.35    7.95
  -3  -5  -3   24.26    8.18
   3   5   3   22.64    6.52
   3   5   3   27.10    7.75
  -5  -5  -3  113.32   12.98
  -5  -5  -3  114.95   13.71
   5   5   3  119.82   12.33
   5   5   3  112.04   13.42
  -7  -5  -3   18.25    7.53
   7   5   3   27.97    9.39
   7   5   3   36.17   11.40
  -9  -5  -3  100.47   14.62
   9   5   3  124.30   16.48
   9   5   3  115.49   15.49
 -11  -5  -3    9.03    7.32
  11  -5   3   36.66   10.45
  11   5   3   13.45    7.78
  11   5   3   28.64   11.70
  13  -5   3   59.64   14.40
 -13  -5  -3  109.39   23.07
  13   5   3  123.91   24.48
  13   5   3   74.14   19.03
 -15  -5  -3   16.87   11.55
  15  -5   3   42.96   14.15
  15   5   3   15.79   11.02
  15   5   3    8.02    9.65
  17  -5   3   17.14   11.32
  17   5   3   38.10   17.10
  17   5   3   30.19   15.50
  16  -6  -3  142.07   20.18
  16   6  -3  152.74   32.65
  16   6  -3  120.82   28.73
 -14  -6   3    1.67    4.53
  14  -6  -3    4.27    6.66
  14   6  -3    9.50    8.44
  14   6  -3   -1.25    6.24
 -12  -6   3  214.86   23.48
  12  -6  -3  224.46   18.71
  12   6  -3  203.68   23.63
  12   6  -3  219.93   25.65
 -10  -6   3    0.61    5.11
  10   6  -3    0.61    4.78
  10   6  -3    3.56    6.56
  -8  -6   3  409.44   29.21
   8   6  -3  385.63   29.70
   8   6  -3  430.40   29.46
  -6  -6   3   -1.08    4.14
   6   6  -3    3.14    5.13
   6   6  -3    1.07    4.54
   4  -6  -3  813.36   25.95
  -4  -6   3  805.36   36.68
   4   6  -3  788.74   33.74
   4   6  -3  802.28   31.01
   4   6  -3  773.07   37.33
   2  -6  -3    0.52    2.60
  -2  -6   3    1.61    3.67
   2   6  -3    1.79    3.93
   2   6  -3   -2.36    2.10
   2   6  -3    3.23    3.78
   0  -6  -3 1277.50   42.30
   0  -6   3 1213.65   39.76
   0  -6  -3 1251.30   33.49
   0  -6   3 1212.43   33.55
   0   6   3 1289.50   40.99
   0   6  -3 1194.26   31.27
   0   6  -3 1173.08   40.63
   2  -6   3   -0.59    1.94
  -2  -6  -3   -1.79    2.63
  -2  -6  -3   -0.07    3.32
   2  -6   3    2.10    1.97
  -2   6  -3    1.10    2.65
   2   6   3    2.59    3.97
   2   6   3    1.12    2.76
  -4  -6  -3  340.96   23.90
   4  -6   3  383.82   12.59
  -4  -6  -3  324.09   21.42
   4   6   3  394.64   25.12
   4   6   3  370.58   20.34
  -6  -6  -3    1.67    5.01
   6  -6   3    0.94    2.34
  -6  -6  -3    1.75    4.36
   6   6   3    2.80    5.05
   6   6   3    1.10    4.19
   8  -6   3  819.37   29.75
  -8  -6  -3  870.88   45.37
   8   6   3  858.36   44.35
   8   6   3  824.46   40.49
 -10  -6  -3   -1.77    5.25
  10  -6   3    2.48    4.34
  10   6   3    4.64    6.89
  10   6   3    3.38    5.78
  12  -6   3  345.06   23.47
 -12  -6  -3  329.77   31.05
  12   6   3  342.31   30.89
  12   6   3  306.17   28.75
 -14  -6  -3    8.61    8.28
  14  -6   3    2.72    6.22
  14   6   3   13.13   10.50
  14   6   3   -3.57    4.91
  16  -6   3   44.48   14.35
  16   6   3   42.23   15.72
  16   6   3   35.51   15.67
  17  -7  -3   16.31   11.56
  17   7  -3    5.52   12.54
  17   7  -3    5.04    9.35
  15   7  -3   32.58   15.36
  15   7  -3   51.12   18.92
 -13  -7   3   49.97   18.00
  13   7  -3   35.63   15.41
  13   7  -3   29.54   13.06
 -11  -7   3   75.48   17.76
  11   7  -3  101.81   23.18
  11   7  -3  101.90   21.35
  -9  -7   3   52.36   14.46
   9   7  -3   31.80   12.77
   9   7  -3   33.02   11.49
  -7  -7   3  104.48   14.81
   7   7  -3   99.94   14.39
   7   7  -3  113.75   16.32
   7   7  -3   95.23   12.41
  -5  -7   3   99.40   19.36
   5   7  -3   79.95   10.36
   5   7  -3   99.40   20.69
   5   7  -3   76.17   14.65
  -3  -7   3   37.07    9.81
   3   7  -3   31.58    9.01
   3   7  -3   40.13    9.50
   3   7  -3   53.76    9.21
  -1  -7   3  149.34   13.75
  -1  -7   3  143.19   11.20
   1   7  -3  122.77    9.46
   1   7  -3  135.35   13.67
   1   7  -3  127.02    7.62
  -1  -7  -3   68.81   10.03
  -1  -7  -3   65.03    8.01
   1   7   3   50.79    4.79
   1   7   3   65.73    5.53
   1   7   3   72.30   10.10
   3  -7   3   18.88    4.88
  -3  -7  -3   37.53    9.78
  -3  -7  -3   42.73   10.64
   3  -7   3   18.39    3.67
   3   7   3   49.13    9.13
   3   7   3   31.71   10.12
  -3   7  -3   19.82    5.44
  -5  -7  -3   58.17   13.79
  -5  -7  -3   66.32   16.23
   5   7   3   64.11   12.81
   5   7   3   66.91   16.23
  -7  -7  -3   75.87   18.70
   7   7   3   92.21   16.71
   7   7   3   56.73   15.08
  -9  -7  -3   19.28    9.38
   9  -7   3   37.49    8.44
   9   7   3   12.18    9.14
   9   7   3    6.16    7.59
 -11  -7  -3   90.49   22.67
  11   7   3   70.11   17.75
  11   7   3  107.43   24.38
 -13  -7  -3   30.33   15.63
  13   7   3   31.24   12.79
  13   7   3   18.43   10.53
  15  -7   3    0.43    5.80
  15   7   3   14.60   10.86
  15   7   3   20.94   13.00
  17  -7   3   22.69   11.56
  17   7   3    0.37    7.35
  17   7   3    5.28   12.90
  16  -8  -3    1.91    6.82
  16   8  -3    5.61    8.29
  16   8  -3    6.04   11.91
  14  -8  -3  160.30   17.73
  14   8  -3  184.53   26.11
  14   8  -3  172.76   24.50
  12  -8  -3    1.25    4.48
 -12  -8   3   -0.28    4.65
  12   8  -3    1.81    6.07
  12   8  -3    7.27    8.88
 -10  -8   3  247.10   26.39
  10   8  -3  239.58   27.33
  10   8  -3  275.46   26.38
  -8  -8   3   -0.72    4.30
   8   8  -3    8.84    6.46
   8   8  -3   -3.12    4.42
   8   8  -3   -1.41    5.03
  -6  -8   3  608.85   37.36
   6   8  -3  695.37   35.70
   6   8  -3  691.29   32.79
   6   8  -3  624.97   38.90
  -4  -8   3   -0.94    3.84
   4  -8  -3    0.20    2.48
   4   8  -3    3.50    4.94
   4   8  -3   -0.43    4.12
   4   8  -3    2.41    3.81
   2  -8  -3  149.17    7.66
   2  -8  -3  133.38   12.55
  -2  -8   3  126.27   14.16
   2   8  -3  134.49    9.24
   2   8  -3  123.36   10.84
   2   8  -3  117.05   14.32
   0  -8   3    0.08    3.28
   0  -8   3    1.28    2.98
   0  -8  -3   -1.37    2.53
   0  -8  -3    1.24    3.03
   0   8   3   -1.70    3.08
   0   8  -3    0.57    1.37
   0   8  -3   -1.04    1.44
   0   8  -3   -4.13    2.10
  -2  -8  -3  195.73   18.27
  -2  -8  -3  165.66   14.21
   2  -8   3  167.30   12.57
   2  -8   3  187.62    9.58
   2   8   3  171.92   10.39
   2   8   3  173.08   11.07
  -2   8  -3  180.77   14.03
   2   8   3  179.78   17.18
  -4  -8  -3    1.18    4.54
  -4  -8  -3    2.67    4.61
   4  -8   3    0.24    1.90
   4   8   3   -1.28    3.43
   4   8   3   -2.64    3.14
  -6  -8  -3  646.58   39.42
  -6  -8  -3  732.01   38.59
   6  -8   3  661.16   20.79
   6   8   3  739.82   34.73
   6   8   3  707.43   40.70
   8  -8   3    0.68    2.95
  -8  -8  -3    1.91    5.18
   8   8   3   -1.46    4.82
   8   8   3    2.52    6.10
 -10  -8  -3  459.90   37.19
  10  -8   3  441.55   22.14
  10   8   3  485.87   37.47
  10   8   3  470.12   33.03
  12  -8   3   -0.19    4.15
 -12  -8  -3    3.60    6.08
  12   8   3    1.68    6.02
  12   8   3    7.72    9.20
  14  -8   3  104.59   19.44
  14   8   3   96.87   23.13
  14   8   3   71.05   21.34
  16  -8   3   -0.48    5.84
  16   8   3   -3.64    5.87
  16   8   3   10.72   12.00
  15  -9  -3    9.93    8.61
  15   9  -3   12.75   13.52
  15   9  -3    5.60   10.91
  13   9  -3   46.45   17.55
  13   9  -3   61.18   23.08
 -11  -9   3   27.48   13.51
  11   9  -3   27.59   11.02
  11   9  -3   30.64   12.74
  11   9  -3   27.04   11.81
   9   9  -3  123.51   17.67
   9   9  -3  139.20   16.74
   9   9  -3  129.02   24.16
  -7  -9   3   94.11   21.59
   7   9  -3   87.42   12.47
   7   9  -3   99.62   18.23
   7   9  -3   84.31   20.77
  -5  -9   3  193.06   20.27
   5   9  -3  187.60   21.09
   5   9  -3  182.71   17.04
   5   9  -3  209.97   15.95
  -3  -9   3   23.24    8.29
   3   9  -3   34.11   11.91
   3   9  -3   19.96    6.02
   3   9  -3   20.94    7.00
  -1  -9   3  158.59   15.86
   1   9  -3  161.33    9.72
   1   9  -3  159.75   16.71
   1   9  -3  174.48    8.47
  -1  -9  -3  103.24   11.01
  -1  -9  -3   86.47   12.45
   1   9   3  108.52    5.02
   1   9   3  102.49    4.95
   1   9   3   95.11   12.90
  -3  -9  -3   35.21   12.42
  -3  -9  -3   31.92    9.30
   3   9   3   36.85   12.61
   3   9   3   32.50    7.42
   3   9   3   37.64    8.32
  -5  -9  -3  277.74   22.87
  -5  -9  -3  284.37   25.57
   5   9   3  272.09   19.52
   5   9   3  284.61   25.63
  -7  -9  -3   71.74   18.73
   7   9   3   62.71   14.20
   7   9   3   88.05   20.53
  -9  -9  -3  101.15   36.41
   9   9   3  129.95   23.89
   9   9   3  100.79   20.76
 -11  -9  -3   30.48   17.95
  11   9   3   19.91   13.63
  11   9   3   19.28   10.55
  13  -9   3   21.79    8.88
  13   9   3   63.76   18.81
  13   9   3   45.33   16.23
  15  -9   3   24.17   10.81
  15   9   3   13.45   13.30
  15   9   3   12.56   12.04
  14 -10  -3    5.17    6.37
  14  10  -3   16.19   14.14
  14  10  -3    4.70    9.26
  12 -10  -3  137.69   12.89
  12  10  -3  166.63   30.02
  12  10  -3  151.08   29.95
  10  10  -3    2.26    6.61
  10  10  -3    7.73    7.23
   8  10  -3  160.09   18.35
   8  10  -3  158.76   17.01
   8  10  -3  133.13   24.51
  -6 -10   3    3.01    6.73
   6  10  -3    0.28    5.90
   6  10  -3    7.79    6.04
   6  10  -3    4.88    6.74
  -4 -10   3  352.91   28.11
   4 -10  -3  375.09   21.46
   4  10  -3  365.42   19.54
   4  10  -3  341.47   21.84
   4  10  -3  360.41   29.64
   2 -10  -3   -0.17    3.29
   2 -10  -3    0.85    2.82
  -2 -10   3    1.00    4.07
   2  10  -3   -2.16    3.53
   2  10  -3    0.03    2.46
   2  10  -3   -2.42    2.74
   0 -10  -3 1521.31   48.03
   0 -10  -3 1449.28   56.15
   0 -10   3 1522.59   54.72
   0 -10   3 1445.35   46.73
   0  10   3 1596.25   56.73
   0  10  -3 1584.07   58.23
   2 -10   3    0.61    2.94
  -2 -10  -3   -4.02    3.12
  -2 -10  -3    0.97    3.95
   2 -10   3    2.14    4.23
   2  10   3    2.43    2.66
   2  10   3    2.75    3.04
   2  10   3   -0.07    5.20
  -2  10  -3   -0.49    3.80
  -4 -10  -3  524.24   31.88
   4 -10   3  570.40   18.32
  -4 -10  -3  499.57   34.81
   4 -10   3  551.01   22.73
  -4  10  -3  580.00   25.10
   4  10   3  523.50   25.39
   4  10   3  518.07   25.00
   4  10   3  512.34   34.89
   6 -10   3    2.82    2.67
  -6 -10  -3   -2.36    4.26
   6  10   3    5.59    5.89
   6  10   3    0.94    5.85
   8 -10   3  231.29   12.35
   8  10   3  242.64   26.70
   8  10   3  248.94   21.87
  10 -10   3   -0.10    3.52
  10  10   3    4.02    7.48
  10  10   3    1.81    7.53
  12 -10   3  233.96   17.66
  12  10   3  236.82   28.53
  12  10   3  197.97   24.40
  14 -10   3   -0.54    5.22
  14  10   3    1.11    7.47
  14  10   3   -7.63    4.23
  15 -11  -3    1.56    6.45
  15  11  -3   20.59   18.14
  15  11  -3   17.98   14.06
  13 -11  -3   45.34   11.31
  13  11  -3    9.31   11.51
  13  11  -3   29.10   17.59
  11 -11  -3   13.27    5.67
  11  11  -3   19.18   10.33
  11  11  -3   37.20   17.40
   9  11  -3   33.34   11.93
   9  11  -3   16.90   10.15
   9  11  -3   16.01    9.17
  -7 -11   3   52.51   16.01
   7  11  -3   35.15   11.68
   7  11  -3   26.96   14.41
   7  11  -3   51.43   13.34
  -5 -11   3   17.22    9.60
   5  11  -3   35.42   14.47
   5  11  -3   28.41    7.52
   5  11  -3   23.92    9.14
  -3 -11   3   70.61   16.68
   3  11  -3   61.70    8.50
   3  11  -3   80.80   18.11
   3  11  -3   72.86    7.40
   1 -11  -3   97.48   17.99
   1 -11  -3   77.09    9.26
  -1  11   3   86.77   12.60
  -1 -11  -3   38.94   11.30
   1 -11   3   82.59   15.52
  -1 -11  -3   37.01   11.28
   1 -11   3   66.30    8.83
   1  11   3   36.67   12.11
  -1  11  -3   88.12   16.65
  -3 -11  -3   87.43   20.53
  -3 -11  -3   88.49   12.66
   3 -11   3   40.86    9.69
   3  11   3   77.21   18.76
  -3  11  -3   51.93   11.54
   3  11   3   58.40    6.96
   3  11   3   71.90    7.63
  -5 -11  -3   14.15    8.97
   5  11   3   36.99   14.37
   5  11   3   34.07    9.88
   5  11   3   35.25    9.11
  -7 -11  -3   45.90   17.65
   7  11   3   47.97   14.90
   7  11   3   67.59   14.39
   7  11   3   55.98   14.83
   9  11   3   37.87   16.29
   9  11   3   46.90   13.86
  11 -11   3   31.80    7.51
  11  11   3   32.04   12.96
  11  11   3   44.40   17.98
  13 -11   3   79.16   11.12
  13  11   3   46.20   19.82
  13  11   3   48.48   16.96
  14 -12  -3  102.19   13.38
  14  12  -3  132.01   36.66
  14  12  -3  167.10   33.66
  12 -12  -3    0.04    3.97
  12  12  -3   15.22   15.03
  12  12  -3   -0.89    7.29
  10  12  -3   77.43   20.90
  10  12  -3   79.59   19.63
  10  12  -3  111.47   24.09
   8  12  -3    2.02    7.21
   8  12  -3    3.86    6.22
   8  12  -3    3.50    6.68
  -6 -12   3   61.20   19.37
   6  12  -3   65.51   20.40
   6  12  -3   53.18   12.50
   6  12  -3   55.85   13.92
  -4 -12   3    1.56    5.34
   4 -12  -3    0.61    2.97
   4 -12  -3   -3.62    2.38
   4  12  -3    9.18    4.79
   4  12  -3    3.89    6.83
   4  12  -3    3.47    5.03
   2 -12  -3  260.63   21.74
  -2 -12   3  270.48   24.67
   2 -12  -3  277.80   17.21
   2  12  -3  271.70   11.10
   2  12  -3  274.31   12.50
   2  12  -3  269.37   26.31
   0 -12  -3   -1.10    4.44
   0 -12   3    8.02    6.13
   0 -12  -3   -1.46    4.12
   0  12   3    3.59    5.93
   0  12  -3    0.05    4.77
  -2 -12  -3  404.56   27.15
   2 -12   3  420.33   25.67
   2 -12   3  382.13   20.91
  -2 -12  -3  380.94   30.84
  -2  12  -3  442.79   27.69
   2  12   3  398.54   30.68
   4 -12   3    0.71    2.87
  -4 -12  -3   -1.39    4.91
   4 -12   3    0.29    3.39
  -4  12  -3    1.84    4.24
   4  12   3    3.07    4.60
   4  12   3    9.01    5.31
   4  12   3    4.83    3.83
  -6 -12  -3  148.24   27.14
   6 -12   3  111.84    7.93
   6  12   3  108.62   13.61
   6  12   3  113.90   13.97
   6  12   3  134.40   27.96
   8 -12   3    7.20    3.07
   8  12   3   10.61    7.11
   8  12   3    6.03    5.88
  10 -12   3  238.20   13.72
  10  12   3  205.17   23.86
  10  12   3  300.59   32.74
  10  12   3  264.90   28.25
  12 -12   3    4.42    5.21
  12  12   3   13.34   10.78
  12  12   3   16.34   13.76
  14 -12   3  140.60   15.91
  14  12   3  183.25   33.15
  14  12   3  150.47   38.19
  13 -13  -3   10.38    6.07
  13  13  -3   30.22   18.62
  13  13  -3   27.49   15.90
  11  13  -3   19.44   12.89
  11  13  -3   10.46   10.44
   9  13  -3   62.96   24.50
   9  13  -3   46.83   14.63
   7  13  -3   27.30    8.84
   7  13  -3   10.16    8.08
   7  13  -3   33.66   13.92
  -5 -13   3   70.07   19.21
   5  13  -3   83.68    9.95
   5  13  -3   82.36   14.66
   5  13  -3   64.23   19.10
  -3 -13   3   45.62   15.59
   3 -13  -3   77.61   15.48
   3  13  -3   23.94   12.30
   3  13  -3   34.36    7.16
   3  13  -3   29.47    5.60
   1 -13  -3   73.72   10.79
   1 -13  -3   93.30   19.64
  -1  13   3   93.26   13.60
   1 -13   3   77.67   16.58
   1  13   3  128.33   17.84
  -1  13  -3   70.68   16.46
  -3 -13  -3   16.56   11.87
   3 -13   3   70.05   13.92
   3  13   3   30.27   12.15
   3  13   3   29.56    3.66
  -3  13  -3   59.80   13.07
  -5 -13  -3  165.98   23.01
   5  13   3  127.85   13.11
   5  13   3  121.65   12.11
   5  13   3  137.88   20.14
   7 -13   3   70.92    6.51
   7  13   3   50.58   12.57
   7  13   3   44.49   15.39
   9  13   3   83.35   18.60
   9  13   3   82.02   20.25
  11  13   3    7.80   10.71
  11  13   3   39.31   13.75
  13  13   3   50.80   18.98
  13  13   3   74.04   28.31
  12  14  -3   58.02   18.03
  12  14  -3   55.11   18.52
  10  14  -3    5.15    8.82
  10  14  -3   -0.09    8.02
   8  14  -3   93.45   22.82
   8  14  -3   91.92   19.12
   8  14  -3   99.21   20.50
   6  14  -3    8.01    6.88
   6  14  -3    5.65    7.73
   6  14  -3   16.60    5.70
  -4 -14   3  138.02   27.93
   4 -14  -3  112.20   14.02
   4  14  -3   91.12   10.15
   4  14  -3  107.52   23.92
   4  14  -3   93.16    8.74
  -2 -14   3    4.84    6.78
   2 -14  -3   -0.28    5.14
   2  14  -3   -5.86    3.31
   0 -14   3  315.35   26.23
   0 -14  -3  290.80   28.24
   0  14  -3  296.93   27.97
   0  14   3  276.81   26.49
   2 -14   3    0.17    5.04
  -2 -14  -3    2.03    6.59
  -2  14  -3    2.71    5.74
   2  14   3    3.18    5.90
   4 -14   3  209.96   15.09
  -4 -14  -3  157.86   22.82
  -4  14  -3  193.95   16.94
   4  14   3  174.70   10.26
   4  14   3  173.47   10.59
   6 -14   3   10.96    4.31
   6  14   3   20.12    6.17
   6  14   3   11.38    6.66
   6  14   3    5.67    9.33
   8 -14   3  255.69   12.84
   8  14   3  234.64   31.43
   8  14   3  190.91   20.15
   8  14   3  231.31   22.97
  10 -14   3   11.79    4.04
  10  14   3   -6.48    5.07
  10  14   3    4.37    7.29
  12 -14   3  149.02   11.64
  12  14   3  136.00   30.87
  12  14   3  136.76   28.29
  11  15  -3   15.80    9.73
   9  15  -3    6.76    8.75
   9  15  -3   23.18   11.47
   9  15  -3   13.77   16.04
   7  15  -3   45.28   11.45
   7  15  -3   45.41   16.46
   7  15  -3   40.53   12.59
   5 -15  -3   85.87   16.82
   5  15  -3   42.05    9.38
   5  15  -3   28.61   11.57
   3 -15  -3    5.47    7.09
  -3 -15   3   13.72   11.41
   3  15  -3    0.90    7.13
  -1 -15   3   22.42   12.52
   1 -15  -3   39.62   14.18
   1  15  -3   18.52   10.70
   1 -15   3   25.33   11.14
  -1 -15  -3   11.40   10.12
   1  15   3   11.16    7.02
  -1  15  -3   36.72   13.57
   3 -15   3   12.65    7.63
   3  15   3   40.71   14.32
  -3  15  -3   22.96    9.34
   5  15   3   27.79   13.99
   5  15   3   29.37    6.62
   7 -15   3   37.76    7.35
   7  15   3   72.07   14.40
   7  15   3   58.15   21.67
   9 -15   3   24.84    6.02
   9  15   3    8.11    8.45
   9  15   3    4.24    9.41
   8  16  -3   11.91   11.24
   8  16  -3   -1.00    3.84
   8  16  -3    1.18    4.95
   6  16  -3   93.77   27.21
   4 -16  -3   -0.83    4.53
   4  16  -3    4.55    9.14
   2 -16  -3   58.60   20.45
   2  16  -3   46.42   15.65
   0 -16  -3   -2.34    5.49
   0 -16   3    0.62    6.38
   0  16  -3    7.92    8.19
   2 -16   3   45.59   12.88
   2  16   3   54.03   19.41
  -2  16  -3   66.45   16.30
   4  16   3   -0.61    6.28
   6  16   3  154.04   34.95
   8 -16   3    1.24    4.01
   8  16   3   -3.85    5.08
   8  16   3    0.20    4.75
   8  16   3    3.99    6.28
   7  17  -3    1.99    4.39
   7  17  -3   -0.14    3.60
   7  17  -3    6.32   11.93
   5 -17  -3    4.87    7.50
   5  17  -3   21.56   14.07
   3 -17  -3   59.66   16.17
   3  17  -3   32.02   14.23
   1 -17  -3   20.30   11.71
   1  17  -3   31.70   14.77
   1 -17   3    7.93    8.45
   1  17   3   34.00   13.86
  -1  17  -3   21.97   10.90
   3 -17   3   30.71   11.13
   3  17   3   11.67   11.79
   5  17   3   19.50   14.99
   7  17   3    6.00    9.89
   7  17   3   -0.83    2.85
   7  17   3   -0.06    2.47
   4 -18  -3   51.64   16.79
   4  18  -3   71.56   24.54
   2 -18  -3    9.35    8.42
   2  18  -3   -0.06    7.49
   0  18  -3   80.54   20.93
   2 -18   3   -2.73    4.85
  -2  18  -3   -1.87    5.64
   2  18   3    0.92    6.35
   4  18   3   42.42   16.72
  18   0  -4   -1.41    6.31
  18   0  -4   -1.59    4.49
  16   0  -4  149.77   21.40
  16   0  -4  165.98   19.31
  14   0  -4    4.53    6.36
  14   0  -4    6.22    7.67
  12   0  -4  143.65   16.05
  12   0  -4  123.16   16.98
  10   0  -4   -0.82    3.11
  -8   0   4   97.47   10.12
   8   0  -4  110.86   11.77
   6   0  -4   -0.32    2.44
   4   0  -4 1303.50   88.04
   4   0  -4 1335.82  240.97
  -4   0   4 1234.07   89.28
   2   0  -4    2.55    2.01
   0   0   4  658.71   39.33
   0   0   4  674.36  120.27
   0   0  -4  645.90   39.08
   0   0  -4  457.63  133.42
  -2   0  -4    0.73    1.88
   2   0   4    2.33    1.85
   4   0   4  155.39   10.88
  -4   0  -4  142.14    9.81
  -4   0  -4  132.57   10.14
  -6   0  -4    0.85    3.79
   6   0   4    3.48    4.03
  -6   0  -4    0.67    2.80
   6   0   4   -0.61    2.28
   8   0   4  643.52   31.29
   8   0   4  650.56   27.28
  -8   0  -4  671.62   29.28
  10   0   4   -0.55    3.42
  10   0   4    1.32    4.91
 -10   0  -4    5.15    5.04
 -12   0  -4 1038.01   43.51
  12   0   4 1004.01   48.52
  12   0   4 1028.10   41.72
 -14   0  -4   -0.52    4.44
  14   0   4    1.51    6.80
 -16   0  -4  125.34   16.83
  16   0   4  154.08   22.19
 -18   0  -4   -0.01    3.50
  18   0   4    7.14   10.85
  17  -1  -4   69.09   20.55
  17  -1  -4   40.97   12.17
  17   1  -4   14.75   12.49
  17   1  -4   22.59   13.35
  15  -1  -4   31.64   11.84
  15  -1  -4   30.38   13.50
  15   1  -4   64.41   16.41
  15   1  -4  104.16   23.80
  13  -1  -4  115.57   14.11
  13  -1  -4  111.96   22.05
  13   1  -4   68.09   16.89
 -11  -1   4   75.88   11.10
  11   1  -4  100.66   19.17
  11   1  -4   91.80   19.33
  -9  -1   4   40.71    9.81
   9   1  -4   40.85   11.01
  -7  -1   4  174.57   13.71
   7   1  -4  162.93   14.43
  -5  -1   4   50.94    6.82
   5   1  -4   53.66    7.55
  -3  -1   4  116.39    8.64
   3   1  -4  110.82    8.31
   3   1  -4  117.92    8.94
  -1  -1   4  388.09   13.14
   1   1  -4  376.99   12.54
   1  -1   4  411.76   12.68
  -1   1  -4  403.63   12.83
  -3  -1  -4  168.46   10.85
  -3  -1  -4  166.57   10.73
   3   1   4  171.66   10.66
   3   1   4  175.29   10.44
  -5  -1  -4  100.48    9.98
  -5  -1  -4   87.21    9.93
   5   1   4   94.96    9.07
   5   1   4   83.18    9.52
  -7  -1  -4  126.65   12.66
   7   1   4  133.55   12.19
   7   1   4  138.39   13.65
   9  -1   4  208.42   17.78
   9  -1   4  202.28   13.70
  -9   1  -4  227.59   15.89
  11  -1   4   77.82   16.45
  11  -1   4   50.84   10.11
 -11   1  -4   61.21    9.03
 -13  -1  -4   72.32   15.53
  13   1   4   75.63   18.84
  13   1   4   80.60   15.93
  15  -1   4    7.80    9.14
 -15  -1  -4   30.79   10.81
  15   1   4   52.50   16.27
  15   1   4   29.13    9.74
 -15   1  -4   15.85    7.57
  17  -1   4   88.35   21.70
 -17  -1  -4   23.84   10.76
  17   1   4   32.54   15.91
  18  -2  -4   46.62   12.49
  18  -2  -4   90.50   25.61
  18   2  -4   92.38   25.23
  18   2  -4   41.20   14.90
  16  -2  -4   -1.91    3.34
  16  -2  -4    4.25    8.41
  16   2  -4   -1.95    4.69
  16   2  -4    0.01    7.11
 -14  -2   4  152.88   18.35
  14  -2  -4  175.87   20.59
  14  -2  -4  141.12   15.03
  14   2  -4  162.89   21.45
  14   2  -4  139.84   18.82
 -12  -2   4   -3.51    2.57
  12  -2  -4   -0.53    3.54
  12   2  -4    1.40    5.50
  12   2  -4    1.30    6.03
 -10  -2   4  323.84   23.08
  10  -2  -4  351.48   20.52
  10   2  -4  320.94   24.77
   8  -2  -4    0.08    2.47
  -8  -2   4   -0.42    2.97
   8   2  -4    1.98    4.48
   6  -2  -4  533.84   20.59
  -6  -2   4  529.11   25.20
   6   2  -4  567.25   27.74
  -4  -2   4   -0.12    2.54
   4   2  -4    0.52    2.78
  -2  -2   4  131.38    9.20
   2  -2  -4  139.00    6.18
  -2  -2   4  137.40    9.08
   2   2  -4  145.64   10.07
   2   2  -4  132.10    8.31
   0  -2  -4    2.05    1.79
   0  -2   4    1.20    1.65
   0   2  -4   -0.31    1.59
   0   2   4    1.50    1.64
  -2  -2  -4 1116.54   33.56
   2   2   4 1183.38   33.52
  -2   2  -4 1086.11   27.68
  -4  -2  -4    1.69    3.53
   4  -2   4    1.60    2.61
  -4  -2  -4    4.68    3.78
   4   2   4    2.80    3.14
  -4   2  -4   -0.24    2.34
   4   2   4   -1.01    2.20
  -6  -2  -4 1218.85   43.85
   6  -2   4 1220.09   38.92
  -6  -2  -4 1235.39   43.90
   6   2   4 1209.85   42.14
   6   2   4 1266.91   43.67
  -8  -2  -4    3.75    4.37
   8  -2   4    3.03    4.26
  -8   2  -4   -0.59    2.41
   8   2   4    0.15    3.26
   8   2   4    1.74    4.38
  10  -2   4  343.46   23.64
 -10  -2  -4  340.14   24.67
  10   2   4  298.20   24.35
  10   2   4  315.91   22.96
 -10   2  -4  351.20   18.85
  12  -2   4    2.80    5.87
 -12  -2  -4   -0.52    4.27
  12   2   4    2.49    6.29
  12   2   4    3.64    5.94
 -12   2  -4    5.45    5.19
 -14  -2  -4  271.73   25.59
  14  -2   4  255.78   24.35
 -14   2  -4  249.32   18.02
  14   2   4  237.76   23.14
  14   2   4  279.91   26.99
 -16  -2  -4    4.15    6.34
  16  -2   4    6.55    8.68
  16   2   4   10.01   10.00
  16   2   4    8.49    8.01
  18  -2   4   68.07   22.21
  18   2   4   51.28   22.69
  17  -3  -4    9.14   10.54
  17   3  -4   48.52   16.55
  17   3  -4   42.25   18.74
 -15  -3   4   20.64   10.31
  15  -3  -4   24.63   10.83
  15   3  -4   12.36   10.91
  15   3  -4    9.22    9.24
 -13  -3   4   50.18   13.83
  13  -3  -4   25.32   10.88
  13   3  -4   44.03   15.09
  13   3  -4   52.67   16.73
  11  -3  -4   44.01    9.36
 -11  -3   4   32.31   11.36
  11   3  -4   30.21   12.24
  11   3  -4   16.96    9.13
  -9  -3   4  178.34   17.25
   9   3  -4  211.73   20.03
  -7  -3   4  169.38   15.51
   7   3  -4  206.46   18.15
  -5  -3   4  329.33   19.67
  -3  -3   4   16.81    5.21
   3   3  -4   13.36    4.79
   3   3  -4   10.72    5.15
  -1  -3   4  168.46   10.65
  -1  -3   4  172.24    9.54
   1   3  -4  186.44   11.66
   1   3  -4  185.61    8.90
  -1  -3  -4   91.73    6.77
  -1  -3  -4   81.49    7.93
   1   3   4   83.11    7.69
   1   3   4   88.48    5.93
  -3  -3  -4   69.30    7.95
  -3  -3  -4   87.95    9.55
   3   3   4   89.51    9.21
   3   3   4   66.93    7.45
  -5  -3  -4  549.78   27.29
  -5  -3  -4  495.46   25.47
   5   3   4  527.61   25.98
   5   3   4  531.68   25.19
  -7  -3  -4  117.90   13.82
  -7  -3  -4  107.59   13.20
   7   3   4  103.50   12.58
   7   3   4   82.07   11.43
  -9  -3  -4  141.14   16.17
   9   3   4  140.35   15.71
   9   3   4  136.38   16.23
 -11  -3  -4   41.35   13.22
  11   3   4   37.81   13.59
  11   3   4   35.82   11.62
 -13  -3  -4  103.49   22.07
  13   3   4   78.25   18.52
  13   3   4   91.36   18.92
  15  -3   4   25.26   11.16
 -15  -3  -4    4.48    8.39
  15   3   4    2.28    7.86
  15   3   4   -0.20    5.34
 -17  -3  -4   42.66   19.05
  17  -3   4   29.83   13.44
  17   3   4   94.67   26.97
  17   3   4   49.51   16.20
  18  -4  -4   -1.66    6.04
  18   4  -4    3.30    7.72
  18   4  -4    5.15    9.28
  16  -4  -4  155.23   21.57
  16   4  -4  137.24   31.08
  16   4  -4  140.86   28.14
  14  -4  -4    2.17    6.21
 -14  -4   4    0.49    6.22
  14   4  -4    4.91    7.96
  14   4  -4    3.79    7.29
 -12  -4   4  184.27   20.10
  12   4  -4  182.63   21.54
  12   4  -4  174.44   21.51
 -10  -4   4    1.44    4.72
  10   4  -4    4.49    6.35
  10   4  -4    3.24    5.89
  -8  -4   4  748.23   37.07
   8   4  -4  793.79   39.40
   8   4  -4  789.81   40.24
  -6  -4   4    4.34    5.11
   6   4  -4    0.35    3.59
  -4  -4   4  229.94   16.59
   4   4  -4  262.70   18.65
   4   4  -4  239.25   15.39
   2  -4  -4    1.29    2.29
   2  -4  -4    0.07    0.92
  -2  -4   4    0.01    2.82
  -2  -4   4    0.33    2.45
   2   4  -4    0.44    2.56
   2   4  -4    0.48    2.40
   0  -4   4  997.83   30.77
   0  -4  -4 1017.17   32.60
   0  -4  -4 1078.88   26.55
   0   4  -4  981.91   31.85
  -2  -4  -4    0.69    2.98
   2  -4   4    0.68    1.69
  -2  -4  -4   -1.08    2.40
  -2   4  -4   -0.50    1.71
  -2   4  -4    1.06    1.29
   2   4   4   -1.77    1.92
   2   4   4   -1.13    1.89
   4  -4   4 1340.44   33.45
  -4  -4  -4 1208.05   42.35
  -4  -4  -4 1243.32   45.30
   4   4   4 1303.33   41.38
   4   4   4 1292.11   44.94
  -6  -4  -4   -0.13    3.52
   6  -4   4    1.56    3.17
  -6  -4  -4    7.09    5.80
   6   4   4    5.15    5.11
   6   4   4    3.82    4.32
  -8  -4  -4    5.56    5.44
   8  -4   4    5.54    4.68
   8   4   4    3.43    4.67
   8   4   4    1.88    5.04
  10  -4   4    5.50    5.36
 -10  -4  -4    0.36    4.65
  10   4   4    6.80    6.99
  10   4   4    3.03    5.22
  12  -4   4   95.77   18.10
 -12  -4  -4  114.96   24.20
  12   4   4   78.19   19.51
  12   4   4   61.16   15.19
  14  -4   4   -0.70    5.79
 -14  -4  -4   -0.92    4.98
  14   4   4    5.79    6.59
  14   4   4   -1.28    5.18
  16  -4   4  145.79   26.56
 -16  -4  -4   91.63   27.90
  16   4   4  139.81   19.34
  16   4   4  128.91   27.43
  18  -4   4    1.15    8.39
  18   4   4   11.76   11.92
  18   4   4    1.98    8.01
  17  -5  -4   66.01   19.43
  17   5  -4    8.55   10.70
  17   5  -4   28.50   16.74
  15   5  -4   81.93   24.34
  15   5  -4   56.09   18.42
 -13  -5   4   29.82   11.93
  13  -5  -4   89.05   17.82
  13   5  -4   27.60   11.85
  13   5  -4   55.72   18.35
 -11  -5   4  106.66   22.64
  11   5  -4   93.13   21.23
  11   5  -4   75.00   17.92
  -9  -5   4   57.64   15.51
   9   5  -4   31.23   11.12
   9   5  -4   29.15   11.00
  -7  -5   4  104.46   13.64
   7   5  -4  117.34   14.50
   7   5  -4  115.91   15.12
  -5  -5   4   55.37   11.68
   5   5  -4   41.33    9.77
   5   5  -4   58.52   11.54
  -3  -5   4  140.37   13.11
   3   5  -4  134.34   10.54
  -1  -5   4  108.96   10.28
  -1  -5   4  132.10    9.64
   1   5  -4  120.18    7.53
   1   5  -4  131.59   11.92
   1  -5   4  252.26   13.19
   1  -5   4  269.54   10.91
  -1   5  -4  242.89    9.85
  -1   5  -4  259.22    8.70
  -1   5  -4  234.10   13.84
  -3  -5  -4   64.46    8.60
  -3  -5  -4   77.08   14.42
   3   5   4   69.04    7.94
   3   5   4   72.44   13.18
  -5  -5  -4   53.66   13.66
  -5  -5  -4   42.56   10.89
   5   5   4   33.93    9.27
   5   5   4   42.09   10.09
  -7  -5  -4   52.29   13.34
  -7  -5  -4   59.28   14.50
   7   5   4   70.90   15.88
   7   5   4   41.22   11.17
  -9  -5  -4   54.49   13.69
   9   5   4   54.84   14.81
   9   5   4   40.90   12.65
 -11  -5  -4   80.83   18.70
  11   5   4  109.17   23.79
  11   5   4   96.79   18.94
 -13  -5  -4   87.31   21.79
  13   5   4   62.48   17.29
  13   5   4   58.12   16.34
  15  -5   4   13.27    9.68
 -15  -5  -4   12.54   12.17
  15   5   4   31.89   12.94
  15   5   4   37.78   15.37
  17  -5   4   46.31   15.76
  17   5   4   12.69   10.53
  17   5   4   10.40   12.00
  16  -6  -4   -0.54    5.49
  16   6  -4    0.57    7.69
  16   6  -4   -0.76    6.40
 -14  -6   4  259.94   48.93
  14  -6  -4  220.74   21.26
  14   6  -4  248.55   28.67
  14   6  -4  223.44   26.71
 -12  -6   4    8.90    5.78
  12   6  -4    6.14    8.52
  12   6  -4    5.38    6.34
 -10  -6   4  635.13   39.25
  10   6  -4  613.64   39.16
  10   6  -4  604.01   40.55
  -8  -6   4    2.67    4.36
   8   6  -4   -1.79    4.52
   8   6  -4   -0.79    4.03
  -6  -6   4  198.64   18.66
   6   6  -4  201.63   16.65
   6   6  -4  202.97   18.31
   6   6  -4  220.54   20.93
   4  -6  -4    3.32    3.15
  -4  -6   4    2.72    3.93
   4   6  -4   -0.54    3.66
   4   6  -4    0.53    4.19
   4   6  -4    2.11    4.20
  -2  -6   4  221.32   16.64
   2  -6  -4  265.44   15.46
  -2  -6   4  221.47   14.73
   2  -6  -4  254.51    7.78
   2   6  -4  220.45   14.84
   2   6  -4  237.25   12.54
   2   6  -4  222.34   17.62
   0  -6   4    1.05    3.18
   0  -6  -4    0.33    2.62
   0  -6  -4    2.33    3.91
   0  -6   4    2.00    3.00
   0   6  -4    3.25    2.28
   0   6  -4    1.14    3.54
   0   6  -4    2.36    2.91
   0   6   4   -0.25    2.85
   0   6   4   -0.15    1.46
  -2  -6  -4  560.15   24.50
   2  -6   4  592.01   21.19
  -2  -6  -4  579.75   29.18
   2  -6   4  533.57   17.23
  -2   6  -4  575.43   22.96
   2   6   4  583.53   28.43
   2   6   4  580.48   20.71
   4  -6   4    1.45    2.02
  -4  -6  -4    0.62    3.96
  -4  -6  -4    1.77    3.78
   4   6   4    4.23    4.36
   4   6   4   -0.04    3.94
  -6  -6  -4  212.37   18.89
   6  -6   4  197.10   11.25
  -6  -6  -4  206.05   20.00
   6   6   4  220.68   17.89
   6   6   4  230.49   20.70
  -8  -6  -4    1.65    5.35
   8  -6   4    1.85    3.58
   8   6   4    7.18    6.48
   8   6   4    0.85    5.22
  10  -6   4   25.34    8.08
 -10  -6  -4   55.51   17.95
  10   6   4   36.03   12.25
  10   6   4   38.09   13.10
  12  -6   4    7.28    6.15
 -12  -6  -4    2.07    7.43
  12   6   4    9.13    8.52
  12   6   4    0.06    5.67
 -14  -6  -4  130.08   30.17
  14  -6   4  127.76   15.92
  14   6   4  138.67   20.27
  14   6   4  133.63   27.05
  16  -6   4   -1.09    5.81
  16   6   4    1.40    7.93
  16   6   4    2.11    8.30
  17  -7  -4   -1.44    6.17
  17   7  -4    8.65   12.57
  17   7  -4   25.42   16.59
  15  -7  -4   54.48   17.29
  15   7  -4   19.06   15.56
  15   7  -4   16.38   11.69
 -13  -7   4   59.40   17.96
  13   7  -4   64.27   21.43
  13   7  -4   57.31   17.71
 -11  -7   4   28.78   12.07
  11   7  -4   12.66    9.34
  11   7  -4   12.65   10.03
  -9  -7   4  112.47   21.79
   9   7  -4  139.24   26.25
   9   7  -4  116.50   22.82
  -7  -7   4   42.37   13.69
   7   7  -4   64.05   15.81
   7   7  -4   61.32   13.26
   7   7  -4   61.73   15.05
  -5  -7   4  138.01   15.65
   5   7  -4  116.34   13.76
   5   7  -4  139.34   13.00
   3  -7  -4   52.74   10.01
  -3  -7   4   20.21    8.05
   3   7  -4   18.84    7.21
   3   7  -4   20.81    6.08
   3   7  -4   18.10    7.67
  -1  -7   4  391.36   22.58
  -1  -7   4  380.91   19.29
   1   7  -4  406.69   18.62
   1   7  -4  454.07   25.37
   1   7  -4  466.24   15.93
  -1  -7  -4  147.06   11.39
  -1  -7  -4  123.93   13.50
   1   7   4  133.20    8.18
   1   7   4  149.87    7.65
   1   7   4  125.41   12.95
  -3  -7  -4   45.03   10.92
  -3  -7  -4   35.41    9.62
   3   7   4   36.68    9.68
   3   7   4   39.85    7.94
  -5  -7  -4   89.88   13.23
  -5  -7  -4   88.35   12.31
   5   7   4   86.99   10.97
   5   7   4   88.21   12.99
  -7  -7  -4   16.66    9.33
  -7  -7  -4   19.60    9.14
   7   7   4    9.57    7.17
   7   7   4   15.46    8.19
  -9  -7  -4   87.59   21.57
   9   7   4   95.37   20.62
   9   7   4   90.98   21.43
 -11  -7  -4   56.00   16.19
  11   7   4   33.14   12.06
  11   7   4   66.74   16.34
 -13  -7  -4   86.31   29.71
  13   7   4  104.92   24.66
  13   7   4   71.03   20.33
  15  -7   4   17.74    9.19
  15   7   4    5.62    9.91
  15   7   4   12.24    8.47
  17   7   4   36.53   21.62
  17   7   4   35.32   17.12
  16  -8  -4   92.31   23.60
  16   8  -4  101.43   27.03
  16   8  -4  118.08   32.72
  14  -8  -4    0.60    5.53
  14   8  -4    7.60    8.96
  14   8  -4    2.68    7.99
 -12  -8   4  154.40   31.82
  12   8  -4  107.80   25.91
  12   8  -4  144.24   20.72
 -10  -8   4    1.38    4.50
  10   8  -4    7.20    6.44
  10   8  -4    0.05    5.94
  10   8  -4   23.53    8.61
  -8  -8   4  455.83   33.57
   8   8  -4  487.66   30.10
   8   8  -4  514.71   33.94
   8   8  -4  488.42   36.68
  -6  -8   4   -0.87    3.96
   6   8  -4    0.98    4.89
   6   8  -4    5.48    6.63
   6   8  -4    0.64    4.73
  -4  -8   4  175.11   17.78
   4  -8  -4  170.00   12.70
   4   8  -4  154.60   12.70
   4   8  -4  151.33   14.84
   4   8  -4  152.19   17.63
   2  -8  -4   -0.82    1.81
  -2  -8   4    1.87    4.00
   2  -8  -4   -1.79    2.37
   2   8  -4    5.60    5.81
   2   8  -4   -0.53    2.35
   2   8  -4    0.80    3.14
   0  -8  -4  310.22   21.19
   0  -8   4  279.30   15.50
   0  -8  -4  286.37   15.48
   0  -8   4  295.72   19.15
   0   8  -4  296.35   20.53
   0   8  -4  274.78   11.18
   0   8  -4  282.52    9.88
   0   8   4  270.52   19.20
  -2  -8  -4   -1.27    2.73
  -2  -8  -4   -2.02    3.04
   2  -8   4   -1.94    1.82
   2  -8   4    2.18    2.29
   2   8   4    1.12    4.04
   2   8   4    0.57    2.60
   2   8   4   -0.18    2.39
  -2   8  -4   -2.20    2.19
   4  -8   4  418.89   14.55
  -4  -8  -4  381.18   24.96
  -4  -8  -4  387.92   28.20
   4   8   4  438.87   22.17
   4   8   4  418.41   28.45
   6  -8   4    4.49    3.11
  -6  -8  -4   -0.99    3.85
  -6  -8  -4   -0.95    4.93
   6   8   4    2.94    5.34
   6   8   4    9.79    8.86
  -8  -8  -4   21.50   10.67
   8  -8   4   39.03    7.38
   8   8   4   28.55   10.70
   8   8   4   37.40   14.64
  10  -8   4    1.25    3.91
 -10  -8  -4    5.39    7.43
  10   8   4   -1.83    6.18
  10   8   4    2.73    7.42
 -12  -8  -4   98.28   29.94
  12  -8   4  100.48   12.02
  12   8   4  105.45   25.07
  12   8   4  110.80   23.15
  14  -8   4    1.30    5.21
  14   8   4   -2.00    6.01
  14   8   4    6.14    8.80
  16  -8   4   83.66   19.47
  16   8   4   85.67   25.86
  16   8   4   81.30   22.49
  15  -9  -4   15.97    9.93
  15   9  -4   16.08   14.05
  15   9  -4   27.48   16.28
  13  -9  -4   41.04   11.48
  13   9  -4   34.47   15.25
  13   9  -4   33.35   15.11
 -11  -9   4   66.38   26.01
  11   9  -4   82.86   19.82
  11   9  -4   66.06   18.07
  11   9  -4   62.77   21.00
   9   9  -4   44.34   15.69
   9   9  -4   51.37   18.61
   9   9  -4   57.78   13.53
  -7  -9   4  196.70   21.65
   7   9  -4  187.64   19.92
   7   9  -4  190.19   17.95
  -5  -9   4  104.39   20.98
   5   9  -4   81.78   10.32
   5   9  -4   91.66   18.05
   5   9  -4   75.69   15.42
  -3  -9   4   91.58   13.07
   3   9  -4   76.27   10.01
   3   9  -4   83.47    8.52
   3   9  -4   80.67   16.63
  -1  -9   4   81.50   15.37
  -1  -9   4   61.37   11.02
   1   9  -4   44.90    6.10
   1   9  -4   48.35   11.91
   1   9  -4   51.02    5.14
  -1  -9  -4   27.20    8.64
  -1  -9  -4   31.51    8.18
  -1   9  -4   67.50   13.58
   1   9   4   26.18    9.00
   1   9   4   20.82    2.58
   1   9   4   21.71    3.26
  -3  -9  -4   98.15   14.23
  -3  -9  -4   90.82   12.11
   3   9   4  101.25    9.47
   3   9   4   97.92   14.21
   3   9   4  101.15   10.01
  -5  -9  -4  106.26   14.42
  -5  -9  -4  117.10   16.50
   5   9   4  117.77   12.44
   5   9   4   95.29   17.97
  -7  -9  -4  149.38   19.79
   7   9   4  119.21   14.92
   7   9   4  124.60   18.29
  -9  -9  -4   44.06   17.41
   9   9   4   40.59   14.84
   9   9   4   39.33   13.08
  11  -9   4   27.44    7.70
  11   9   4   43.77   14.62
  11   9   4   90.27   20.74
  13  -9   4   37.63   10.00
  13   9   4   15.31   13.33
  13   9   4   12.95   11.66
  15  -9   4    7.52    7.90
  15   9   4   11.93   11.26
  15   9   4   32.65   14.88
  14 -10  -4  105.73   15.26
  14  10  -4  101.26   31.73
  14  10  -4   94.42   27.76
  12 -10  -4   -2.65    3.19
  12  10  -4   -1.85    5.54
  12  10  -4    9.47    8.72
  10  10  -4  239.29   25.02
   8  10  -4    7.15    9.75
   8  10  -4   -1.75    4.80
   8  10  -4    7.64    6.25
  -6 -10   4  465.67   34.20
   6  10  -4  439.23   35.40
   6  10  -4  491.35   27.49
   6  10  -4  495.91   30.67
   4 -10  -4   -1.53    2.62
  -4 -10   4    5.53    5.85
   4 -10  -4    0.33    1.72
   4  10  -4    2.02    4.98
   4  10  -4    4.21    4.46
   4  10  -4    4.51    6.72
  -2 -10   4  225.42   20.36
   2 -10  -4  231.02   18.94
   2 -10  -4  217.84   12.68
   2  10  -4  223.02   11.91
   2  10  -4  229.49   14.64
   2  10  -4  221.81   21.50
   0 -10  -4    1.86    5.01
   0 -10  -4    4.28    4.59
   0 -10   4   -0.50    3.56
   0 -10   4    5.96    4.89
   0  10  -4    3.31    5.52
   0  10   4    2.57    4.97
  -2 -10  -4   61.81   15.66
   2 -10   4   69.84   12.57
   2 -10   4   57.99    9.13
  -2 -10  -4   48.49   11.62
  -2  10  -4   45.60   10.97
   2  10   4   38.38    5.06
   2  10   4   49.48   13.03
   2  10   4   43.20    5.31
  -4 -10  -4    2.29    5.69
  -4 -10  -4    2.80    6.46
   4 -10   4    5.03    3.22
   4  10   4    5.77    4.46
  -4  10  -4    2.30    3.89
   4  10   4    0.62    5.02
   4  10   4    1.82    4.02
  -6 -10  -4  449.94   35.31
   6 -10   4  520.39   17.84
  -6 -10  -4  490.72   33.49
   6  10   4  508.70   28.17
   6  10   4  464.97   34.75
   8 -10   4    5.37    3.88
   8  10   4   -1.39    4.68
   8  10   4    4.38    6.87
  10 -10   4  242.61   15.59
  10  10   4  257.52   24.78
  10  10   4  222.89   26.71
  12 -10   4    1.48    4.47
  12  10   4   -3.00    5.99
  12  10   4   -3.73    4.92
  14 -10   4  148.01   16.58
  14  10   4  146.02   31.04
  14  10   4  195.91   27.01
  15 -11  -4   63.75   15.89
  15  11  -4   21.62   16.01
  15  11  -4    6.34   12.58
  13 -11  -4   17.17    7.63
  13  11  -4   29.73   18.35
  13  11  -4   22.36   14.35
  11  11  -4    2.30    7.97
  11  11  -4   17.64   11.87
   9  11  -4   40.52   13.43
   9  11  -4   57.69   16.30
   9  11  -4   43.11   15.08
  -7 -11   4   15.85   10.91
   7  11  -4   10.83    8.32
   7  11  -4   19.40    8.28
   7  11  -4   13.82    8.85
  -5 -11   4   64.11   16.83
   5  11  -4   71.36   12.72
   5  11  -4   63.09   16.36
   5  11  -4   65.24   14.00
  -3 -11   4   23.74   10.37
   3 -11  -4   65.39   13.43
   3  11  -4   25.15    7.60
   3  11  -4   27.41    6.29
   3  11  -4   22.22   10.10
   1 -11  -4   32.54    7.72
   1 -11  -4   30.11    9.48
  -1 -11   4   80.71   16.46
   1  11  -4   75.90   17.86
  -1  11   4   42.48   11.04
   1 -11   4   63.36    8.84
   1 -11   4   58.10   11.89
  -1  11  -4   71.52   14.64
  -3 -11  -4   25.82   12.05
  -3 -11  -4   15.30    8.65
   3 -11   4   46.44    9.82
   3  11   4   21.80    5.99
  -3  11  -4   41.58   10.16
   3  11   4   14.15    5.04
   3  11   4   17.45   10.51
  -5 -11  -4   42.41   13.32
  -5 -11  -4   60.92   15.95
   5  11   4   55.20   11.05
   5  11   4   44.22   14.87
   5  11   4   71.05   13.69
  -7 -11  -4   18.76   12.14
   7  11   4   34.42   14.27
   7  11   4   23.42    9.72
   9  11   4   57.65   17.43
   9  11   4   62.80   15.24
  11  11   4   29.87   12.58
  11  11   4   14.24   10.88
  13  11   4   74.59   26.27
  13  11   4   79.41   20.66
  14 -12  -4    0.30    4.79
  14  12  -4   12.54   11.81
  14  12  -4    6.57   11.04
  12 -12  -4   61.44    8.81
  12  12  -4   51.61   18.47
  12  12  -4   43.99   18.78
  10  12  -4    2.90    7.61
  10  12  -4    3.04    6.25
  10  12  -4    5.61    7.71
   8  12  -4   63.85   15.21
   8  12  -4   59.33   14.33
   8  12  -4   81.88   21.39
  -6 -12   4   -2.35    4.94
   6  12  -4   -0.32    5.16
   6  12  -4    6.58    6.46
   6  12  -4    0.36    4.17
  -4 -12   4  109.01   21.46
   4 -12  -4   86.68   11.54
   4 -12  -4  104.31    8.50
   4  12  -4   92.64   11.61
   4  12  -4  120.80   25.11
   4  12  -4  112.57   10.28
   2 -12  -4    2.45    5.16
   2 -12  -4   -3.19    2.71
  -2 -12   4    0.60    5.02
   2  12  -4   -3.07    4.53
   2  12  -4    4.69    2.38
   2  12  -4    1.31    2.62
   0 -12  -4  106.80   12.57
   0 -12   4  127.42   15.38
   0 -12  -4  117.60   15.87
   0  12   4  115.78   15.85
   0  12  -4  129.45   16.79
   2 -12   4    2.30    3.96
  -2 -12  -4    1.94    5.96
  -2 -12  -4   -0.11    5.16
   2 -12   4    0.30    4.08
  -2  12  -4    3.71    5.83
   2  12   4   -4.43    4.09
   4 -12   4   79.87    8.30
  -4 -12  -4   94.04   21.57
  -4 -12  -4  121.25   22.54
   4  12   4   76.56    9.13
   4  12   4   80.69    9.41
   4  12   4   80.34   20.79
  -4  12  -4   78.54   10.26
  -6 -12  -4    2.11    5.79
   6 -12   4    3.39    3.21
   6  12   4    1.36    5.01
   6  12   4   -1.40    4.13
   6  12   4   10.90    6.80
   8 -12   4  146.37    9.94
   8  12   4  186.70   35.00
   8  12   4  157.54   17.28
   8  12   4  149.34   18.39
  10  12   4   18.74   12.43
  10  12   4   27.35   10.52
  12 -12   4  209.10   15.82
  12  12   4  213.78   27.08
  12  12   4  229.18   33.09
  14 -12   4    0.86    6.18
  14  12   4    4.72    8.72
  14  12   4   14.65   16.46
  13  13  -4    0.08    8.78
  13  13  -4   16.06   14.58
  11  13  -4   10.44   12.90
  11  13  -4   35.59   14.88
   9  13  -4   23.76   15.50
   9  13  -4   25.73   11.61
   7  13  -4   66.43   18.82
   7  13  -4   63.59   14.01
   7  13  -4   56.85   15.34
  -5 -13   4   38.10   13.71
   5  13  -4   38.85   16.53
   5  13  -4   36.95   11.01
   5  13  -4   39.53    8.29
  -3 -13   4   93.64   21.22
   3  13  -4   60.29    6.57
   3  13  -4   63.39    7.63
   3  13  -4   54.90   16.85
   1 -13  -4  205.54   21.32
  -1 -13   4  109.33   22.05
   1 -13  -4  164.50   15.24
   1 -13   4   97.78   18.18
  -1 -13  -4   41.79   12.37
  -1 -13  -4   20.81   10.39
   1  13   4   47.85   14.91
  -1  13  -4   60.86   14.65
  -3 -13  -4   88.03   21.39
   3 -13   4   42.86   10.36
   3  13   4   97.18   22.61
   3  13   4   77.99    5.27
  -3  13  -4   44.53   11.68
   3  13   4   78.63    5.36
  -5 -13  -4   44.09   17.42
   5  13   4   47.51    9.93
   5  13   4   59.11   16.22
   5  13   4   54.17   10.41
   7 -13   4   26.66    5.46
   7  13   4   82.53   17.59
   7  13   4   47.08   14.78
   9  13   4   35.22   10.59
   9  13   4   28.82   14.08
  11 -13   4   31.15    6.92
  11  13   4   43.86   17.14
  11  13   4   83.96   20.94
  13 -13   4   47.36    9.95
  13  13   4   18.75   16.02
  13  13   4   27.62   13.80
  12  14  -4    2.92   11.20
  12  14  -4    4.72    8.55
  10  14  -4   85.44   30.59
  10  14  -4  107.67   24.55
   8  14  -4   10.08    8.31
   8  14  -4   -0.43    5.18
   8  14  -4   -0.05    6.83
   6  14  -4  102.84   26.83
   6  14  -4  101.49   11.92
   6  14  -4  104.27   18.88
  -4 -14   4    2.41    6.98
   4 -14  -4    5.75    6.64
   4 -14  -4   -0.31    4.16
   4  14  -4    5.79    4.24
   4  14  -4   14.49    4.47
   4  14  -4    4.49    8.08
  -2 -14   4   58.20   16.29
   2 -14  -4   90.44   16.61
   2 -14  -4   85.08   19.61
   2  14  -4   59.58   18.60
   0 -14  -4    6.06    8.08
   0 -14  -4    4.25    6.51
   0 -14   4    4.29    5.85
   0  14   4    1.21    5.40
   0  14  -4    6.35    7.88
  -2 -14  -4   84.50   21.28
   2 -14   4   86.00   16.44
  -2  14  -4   70.48   15.97
   2  14   4   70.94   17.72
   4 -14   4    3.01    3.96
  -4 -14  -4    2.69    5.42
   4  14   4    4.31    7.39
  -4  14  -4    8.86    5.77
   6 -14   4  207.71   13.72
   6  14   4  222.60   26.69
   6  14   4  183.57   16.53
   6  14   4  198.87   17.38
   8 -14   4   15.75    4.41
   8  14   4   20.91    9.87
   8  14   4    9.56    6.60
   8  14   4   16.54    9.52
  10 -14   4   69.12    7.77
  10  14   4   68.68   20.29
  10  14   4   83.64   17.77
  12  14   4    6.93   10.59
  12  14   4    8.74    8.74
   9  15  -4   42.70   14.11
   9  15  -4   43.31   14.94
   9  15  -4   33.25   15.54
   7  15  -4   25.68   11.82
   7  15  -4   15.88    7.10
   7  15  -4   16.29    8.32
   5 -15  -4   18.70    9.17
   5  15  -4   40.81   14.76
  -3 -15   4    5.33    8.02
   3 -15  -4    9.98    9.07
   3  15  -4   13.17   10.06
   1 -15  -4   27.50   12.37
  -1 -15   4   27.76   11.92
   1  15  -4   37.89   14.91
  -1 -15  -4   37.16   16.20
   1 -15   4    9.14    8.58
   1  15   4   32.27   11.98
  -1  15  -4   16.51    9.18
   3 -15   4   37.21   10.93
  -3  15  -4   42.26   12.21
   3  15   4   14.74   10.05
   5 -15   4   34.19    8.71
   5  15   4   94.24   24.11
   5  15   4   51.70    9.02
   7 -15   4   49.59    8.85
   7  15   4   25.33    8.63
   7  15   4   32.07   15.57
   9 -15   4   29.18    6.39
   9  15   4   51.26   19.90
   9  15   4   43.23   13.22
   8  16  -4   83.28   17.36
   8  16  -4   73.30   26.04
   6  16  -4   12.29   11.95
   4 -16  -4   38.54   13.30
   4  16  -4   43.03   16.15
   2 -16  -4   -5.03    4.55
   2  16  -4    7.67   10.15
   0 -16  -4   92.28   21.39
   0 -16   4   89.99   21.63
   0  16  -4   95.24   22.22
   2 -16   4    1.02    6.76
   2  16   4    2.08    6.99
  -2  16  -4    3.12    6.29
   4  16   4  123.10   27.39
   6 -16   4    4.30    4.68
   6  16   4    0.02    2.23
   6  16   4    9.27   10.42
   6  16   4    0.47    2.32
   8 -16   4   15.64    6.41
   8  16   4    7.66   12.61
   8  16   4   14.59    9.27
   8  16   4   -0.12    4.58
   7  17  -4   13.05   12.16
   5 -17  -4   20.33    9.26
   5  17  -4   14.50   12.81
   3 -17  -4   19.31   10.69
   3  17  -4   50.27   18.11
   1 -17  -4   23.56   12.77
   1  17  -4   22.35   12.70
   1 -17   4   53.32   17.28
  -1  17  -4   61.73   18.08
   3  17   4   36.30   15.19
   5  17   4   -0.52    9.06
   7  17   4   18.57   14.61
   4 -18  -4    0.01    6.16
   4  18  -4   -3.79    7.37
   2  18  -4   43.01   18.43
   0  18  -4   -1.74    5.55
  -2  18  -4   64.28   17.14
  18   0  -5   84.35   19.24
  18   0  -5  100.31   27.19
  16   0  -5    5.50    7.38
  16   0  -5    1.56    7.67
  14   0  -5  273.03   23.99
  14   0  -5  278.55   27.66
  12   0  -5    0.14    4.08
  10   0  -5  606.18   31.65
   8   0  -5    0.58    3.11
   6   0  -5   83.81    9.29
   4   0  -5   -1.11    1.88
   2   0  -5    7.78    3.05
  -2   0   5    8.18    3.31
   0   0  -5    1.63    1.88
   0   0   5    1.44    1.72
   2   0   5    6.67    2.96
  -2   0  -5    7.23    3.34
   4   0   5   -0.34    2.49
  -4   0  -5   -1.48    2.32
  -4   0  -5   -0.21    2.22
  -6   0  -5 2982.53   75.08
  -8   0  -5   -2.21    2.17
   8   0   5    1.82    4.45
   8   0   5    0.92    3.14
  10   0   5  500.30   30.36
  10   0   5  572.02   27.02
 -10   0  -5  541.13   28.76
  12   0   5    3.48    7.02
  12   0   5    9.66    5.89
 -12   0  -5   -4.62    2.90
  14   0   5   90.84   21.20
 -14   0  -5   85.95   17.06
 -16   0  -5    6.42    7.06
  16   0   5   13.43    9.68
  18   0   5  237.26   41.22
  17  -1  -5   28.17   13.38
  17  -1  -5   12.56    8.42
  17   1  -5   67.78   21.88
  17   1  -5   67.60   21.26
  15  -1  -5   94.34   21.44
  15  -1  -5   85.01   18.42
  15   1  -5   42.78   13.22
  15   1  -5   33.17   14.04
  13   1  -5   72.32   17.20
  13   1  -5  111.52   24.21
  11  -1  -5   65.73   14.09
  11   1  -5   27.63    9.83
  -9  -1   5   72.07    9.77
   9   1  -5   77.04   14.59
  -7  -1   5   50.47    9.91
   7   1  -5   69.32   13.55
   5  -1  -5   67.24    7.13
   3   1  -5   46.01    6.03
   3   1  -5   51.64    5.97
  -1  -1   5  777.84   21.94
   1   1  -5  738.29   20.68
  -1  -1  -5  285.42   11.48
   1   1   5  273.51   10.75
  -3  -1  -5  102.09    8.72
  -3  -1  -5  113.32    8.92
   3   1   5  104.64    8.39
  -5  -1  -5  123.91   11.49
  -5  -1  -5  118.96   11.12
   5   1   5  109.61    9.88
   5   1   5  117.27   11.05
   7  -1   5   34.62    9.07
  -7  -1  -5   18.66    7.35
  -7  -1  -5   12.52    6.83
  -7   1  -5   29.94    7.42
   7   1   5   14.43    6.35
   7   1   5    9.40    6.01
  -9  -1  -5  137.93   14.41
   9   1   5  116.98   14.45
   9   1   5  141.64   13.92
  11  -1   5   99.63   14.28
 -11  -1  -5   55.41   13.10
  11   1   5   59.70   15.32
  11   1   5   32.82    9.61
 -13  -1  -5  118.99   15.19
  13  -1   5   84.22   19.43
  13   1   5  120.46   17.48
  13   1   5  152.90   16.08
 -13   1  -5   74.29   14.76
 -15  -1  -5   31.47   12.21
  15  -1   5   30.94   11.85
  15   1   5   18.90   11.97
 -15   1  -5   43.04   11.74
  17  -1   5   13.90   11.75
 -17  -1  -5   58.09   17.68
  17   1   5   66.93   19.61
  18  -2  -5    0.09    4.70
  18  -2  -5   -0.23    7.94
  18   2  -5    2.27    7.08
  18   2  -5   -3.73    6.04
  16  -2  -5   89.29   21.36
  16  -2  -5  102.69   13.60
  16   2  -5  101.37   25.57
  16   2  -5   84.22   21.02
  14  -2  -5    0.64    4.84
  14  -2  -5    1.25    6.28
  14   2  -5    2.71    6.21
  14   2  -5    3.66    6.77
  12  -2  -5  184.30   16.47
 -12  -2   5  177.78   17.74
  12   2  -5  156.96   19.81
  12   2  -5  167.74   19.64
 -10  -2   5    1.68    4.81
  10  -2  -5   -0.06    3.43
  10   2  -5   -1.91    3.72
   8  -2  -5  238.42   15.39
  -8  -2   5  257.44   18.65
   8   2  -5  238.18   19.64
   6  -2  -5    2.44    3.01
  -6  -2   5    0.17    2.94
   6   2  -5    1.14    3.15
  -4  -2   5  915.33   32.11
   4   2  -5  967.90   34.44
   4   2  -5  958.52   31.99
   2  -2  -5   -0.72    1.42
  -2  -2   5   -0.57    2.23
   2   2  -5   -1.09    2.03
   2   2  -5    0.50    2.22
   0  -2  -5   90.53    5.77
   0  -2   5   98.37    6.26
   0   2  -5   91.61    5.97
   0   2   5   85.23    5.34
  -2  -2  -5    1.37    2.46
  -2  -2  -5    0.82    2.59
   2  -2   5   -0.13    1.85
   2   2   5    0.20    2.10
  -2   2  -5   -0.48    1.78
   4  -2   5  998.86   30.32
  -4  -2  -5 1017.67   35.80
  -4  -2  -5 1003.86   34.98
  -4   2  -5  968.96   29.85
   4   2   5 1095.52   35.38
   4   2   5 1062.06   34.60
   6  -2   5    0.87    3.23
  -6  -2  -5   -0.11    3.81
  -6  -2  -5    0.74    3.29
  -6   2  -5    0.92    2.64
   6   2   5    1.17    3.83
   6   2   5    1.12    3.04
   8  -2   5  593.11   28.21
  -8  -2  -5  566.11   30.62
  -8  -2  -5  536.74   30.10
  -8   2  -5  587.72   23.69
   8   2   5  573.69   28.82
   8   2   5  584.41   30.90
 -10  -2  -5    5.13    4.66
  10  -2   5   -1.49    3.73
  10   2   5   -2.04    3.91
  10   2   5    1.08    4.58
 -10   2  -5   -0.56    2.95
  12  -2   5  150.27   17.30
 -12  -2  -5  130.66   16.75
 -12   2  -5  149.51   13.35
  12   2   5  135.38   16.01
  12   2   5  120.28   17.15
 -14  -2  -5    3.24    5.72
  14  -2   5    0.99    6.98
  14   2   5    5.23    7.10
 -14   2  -5    1.90    4.20
  14   2   5   -0.36    4.99
 -16  -2  -5  131.66   26.48
  16  -2   5  143.32   20.84
  16   2   5  171.04   31.18
  16   2   5  120.72   16.89
 -18  -2  -5   -0.19    5.91
  18  -2   5   -1.21    7.77
  18   2   5   -0.35    9.04
  17  -3  -5   60.53   18.01
  17   3  -5   18.86   14.08
  17   3  -5   47.26   18.00
  15  -3  -5   32.18    9.73
  15  -3  -5   15.46   10.45
  15   3  -5   52.72   16.96
  15   3  -5   64.94   19.33
 -13  -3   5   17.02    8.67
  13   3  -5   10.12    9.24
  13   3  -5   27.12   12.14
  11  -3  -5   35.83    9.03
 -11  -3   5   86.49   17.75
  11   3  -5   58.42   16.26
  11   3  -5   65.36   16.16
  -9  -3   5   84.95   11.79
   9   3  -5   83.80   17.71
  -7  -3   5  445.04   25.20
   7   3  -5  434.85   27.06
  -5  -3   5  121.87   11.90
   5   3  -5  120.24   12.73
   5   3  -5  124.72   11.65
  -3  -3   5   88.69    9.09
   3   3  -5   80.23    7.81
  -1  -3   5   47.17    5.38
   1   3  -5   42.65    6.02
   1   3  -5   33.31    4.32
  -1  -3  -5   27.68    5.66
  -1  -3  -5   24.66    5.65
   1   3   5   25.84    4.68
  -3  -3  -5  358.38   19.86
  -3  -3  -5  398.11   19.11
   3   3   5  415.67   18.16
   3   3   5  387.67   19.72
  -5  -3  -5  128.59   13.18
  -5  -3  -5  132.03   12.94
   5   3   5  142.37   13.00
   5   3   5  124.53   12.25
  -7  -3  -5  187.99   17.31
  -7  -3  -5  204.79   17.97
   7   3   5  202.54   17.06
   7   3   5  195.87   16.95
  -9  -3  -5   80.01   16.99
   9   3   5   66.61   14.80
   9   3   5   58.74   13.22
 -11  -3  -5   86.62   18.86
  11   3   5   94.72   19.03
  11   3   5   69.86   16.49
 -13  -3  -5   32.77   11.56
  13   3   5   14.84    8.96
  13   3   5   18.75    9.96
 -15  -3  -5   27.41   14.04
  15   3   5   32.10   13.84
  15   3   5   34.90   13.03
  17  -3   5   70.67   19.22
  17   3   5   29.01   12.78
  17   3   5   19.01   14.65
  18  -4  -5   60.87   20.29
  18   4  -5   45.54   20.56
  18   4  -5   54.92   18.80
  16  -4  -5   -0.55    6.21
  16   4  -5    1.59    7.82
  16   4  -5   -0.34    5.61
 -14  -4   5  261.07   25.73
  14  -4  -5  258.52   23.82
  14   4  -5  262.63   28.24
  14   4  -5  280.72   28.53
 -12  -4   5   -2.51    3.30
  12   4  -5   -1.30    4.70
  12   4  -5    3.45    7.55
 -10  -4   5  880.33   42.97
  10   4  -5  898.68   47.49
  10   4  -5  894.54   46.32
   8  -4  -5    1.32    2.53
  -8  -4   5   -3.78    1.95
   8   4  -5   -4.33    2.23
  -6  -4   5 1954.42   62.52
   6   4  -5 2025.35   66.63
  -4  -4   5   -0.51    3.20
   4   4  -5   -2.76    2.73
   4   4  -5   -1.18    3.18
   2  -4  -5 4131.12  305.25
  -2  -4   5 3914.39  445.72
  -2  -4   5 3945.04  183.46
   2  -4  -5 3927.24  119.72
   2   4  -5 3587.29  452.32
  -2   4   5 3873.44  261.45
   2   4  -5 4002.55  175.44
  -2   4   5 4154.56  118.49
   0  -4  -5   -0.27    2.01
   0  -4   5   -0.42    2.07
   0  -4  -5    1.68    2.79
   0   4  -5   -0.20    1.75
   0   4   5    1.81    1.78
   0   4  -5   -0.01    2.27
   2  -4   5  364.40   12.88
  -2  -4  -5  325.13   16.30
  -2  -4  -5  329.87   19.09
   2   4   5  352.95   18.97
  -2   4  -5  346.08   14.35
  -2   4  -5  328.52   11.57
   2   4   5  347.88   15.01
  -4  -4  -5   -0.18    3.31
   4  -4   5    0.81    2.33
  -4  -4  -5   -0.93    2.99
   4   4   5    1.80    3.78
   4   4   5    0.24    3.62
  -6  -4  -5 1319.60   50.72
  -6  -4  -5 1253.99   48.52
   6  -4   5 1455.57   40.59
   6   4   5 1310.21   49.05
   6   4   5 1354.06   47.53
   8  -4   5    0.07    3.30
  -8  -4  -5    4.24    6.14
  -8  -4  -5   -3.20    2.79
   8   4   5    0.62    4.70
   8   4   5    1.02    4.14
 -10  -4  -5  578.59   36.59
  10  -4   5  605.58   30.19
  10   4   5  579.40   34.62
  10   4   5  543.49   34.26
 -12  -4  -5    2.65    6.47
  12  -4   5    2.53    5.44
  12   4   5    3.91    5.98
  12   4   5    5.49    7.30
  14  -4   5  142.61   17.56
 -14  -4  -5  146.63   20.54
  14   4   5  141.27   18.74
  14   4   5  160.40   21.06
  16  -4   5    5.86    8.02
  16   4   5   -0.08    7.99
  16   4   5    0.89    6.36
  17  -5  -5   23.94   13.59
  17   5  -5   28.17   16.34
  17   5  -5   54.15   20.01
  15  -5  -5   90.26   20.35
  15   5  -5   32.38   14.94
  15   5  -5   38.86   16.35
 -13  -5   5  137.86   26.39
  13   5  -5  134.36   28.32
  13   5  -5  116.54   25.32
 -11  -5   5   42.56   13.30
  11   5  -5   68.40   17.13
  11   5  -5   50.79   15.36
  -9  -5   5  107.77   14.70
   9   5  -5   95.96   18.53
   9   5  -5  115.74   20.71
  -7  -5   5   45.66   11.71
   7   5  -5   68.43   14.17
   7   5  -5   46.53   11.79
  -5  -5   5  217.36   17.82
   5   5  -5  212.31   15.79
  -3  -5   5   35.83    8.57
   3   5  -5   34.98    8.83
   3   5  -5   47.67    8.64
  -1  -5   5  451.19   21.50
  -1  -5   5  460.42   19.15
   1   5  -5  453.51   22.83
   1   5  -5  470.57   16.47
  -1  -5  -5  199.53   11.80
  -1  -5  -5  206.23   15.20
   1   5   5  201.82   14.46
   1   5   5  216.62    9.82
  -3  -5  -5   65.10   11.79
  -3  -5  -5   72.38   12.48
   3   5   5   62.44   12.22
   3   5   5   51.53    7.03
  -5  -5  -5   94.52   12.70
  -5  -5  -5   97.23   12.09
   5   5   5   96.99   12.38
   5   5   5   93.67   11.00
  -7  -5  -5   29.32    9.84
  -7  -5  -5   30.67   10.56
   7   5   5   34.75   11.24
   7   5   5   26.60    9.41
  -9  -5  -5  104.26   15.08
   9   5   5  104.49   18.83
   9   5   5   99.83   14.73
 -11  -5  -5   90.97   20.99
  11   5   5   64.34   17.61
  11   5   5   52.56   15.50
 -13  -5  -5  122.22   24.23
  13   5   5  125.96   25.07
  13   5   5  135.89   18.61
  15  -5   5   24.66   10.59
  15   5   5    1.03    6.81
  15   5   5   20.44   12.88
  17  -5   5   15.91   12.27
  17   5   5   18.41   13.09
  17   5   5   23.76   14.61
  16  -6  -5   92.96   20.96
  16   6  -5  104.91   27.94
  16   6  -5   71.23   22.20
  14  -6  -5    1.80    6.72
  14   6  -5    4.25    6.01
  14   6  -5    3.77    9.52
 -12  -6   5  484.41   35.96
  12   6  -5  503.06   39.30
  12   6  -5  435.03   35.95
 -10  -6   5   -1.74    4.18
  10   6  -5    8.46    7.21
  10   6  -5    1.45    5.68
  -8  -6   5  460.15   31.07
   8   6  -5  414.93   26.90
   8   6  -5  456.42   30.92
  -6  -6   5   -1.44    2.63
   6   6  -5   -0.81    3.70
   6   6  -5    0.38    4.55
   6   6  -5    2.42    4.85
  -4  -6   5 5475.18  687.73
   4   6  -5 5249.00  258.44
  -2  -6   5    2.00    3.79
   2  -6  -5   -1.75    2.59
   2  -6  -5    0.35    1.66
  -2  -6   5    0.78    3.31
   2   6  -5   -1.19    3.05
   2   6  -5    2.68    3.03
   0  -6  -5 4012.30  174.94
   0  -6   5 4130.51  183.53
   0  -6  -5 4504.83  386.92
   0  -6   5 4124.26  435.99
   0   6  -5 4152.60  165.46
   0   6   5 4274.28  163.22
   0   6  -5 4434.80  490.23
   0   6   5 3835.68  422.70
   2  -6   5    1.37    2.32
  -2  -6  -5    0.45    3.19
  -2  -6  -5    2.73    5.03
   2   6   5    0.63    3.55
  -2   6  -5   -0.70    2.25
   2   6   5    2.16    2.95
   4  -6   5  606.95   19.30
  -4  -6  -5  602.70   29.51
  -4  -6  -5  604.60   32.63
   4   6   5  605.04   26.33
   4   6   5  598.16   31.50
   6  -6   5   -0.44    2.37
  -6  -6  -5   -1.14    4.16
  -6  -6  -5    0.29    4.16
   6   6   5    3.18    4.75
   6   6   5    0.64    4.51
   8  -6   5  443.46   21.10
  -8  -6  -5  405.95   29.00
  -8  -6  -5  396.37   30.16
   8   6   5  449.99   28.65
   8   6   5  417.71   29.94
  10  -6   5    2.09    4.86
 -10  -6  -5    0.99    6.17
  10   6   5   -0.19    4.28
  10   6   5   -0.31    6.61
  12  -6   5  485.98   28.23
 -12  -6  -5  454.63   36.69
  12   6   5  438.87   36.08
  12   6   5  442.06   34.20
  14   6   5   12.66    9.35
  14   6   5    7.55    6.46
  16  -6   5   75.38   20.41
  16   6   5   67.83   19.59
  16   6   5   76.27   20.78
  17  -7  -5   28.72   13.69
  17   7  -5   16.67   12.28
  17   7  -5    3.90   10.66
  15  -7  -5   18.05   10.55
  15   7  -5   50.43   17.32
  15   7  -5   53.25   19.91
  13   7  -5   34.77   14.04
  13   7  -5   39.92   13.90
 -11  -7   5   65.54   17.36
  11   7  -5   78.55   19.57
  11   7  -5   48.18   16.09
  -9  -7   5   48.54   13.78
   9   7  -5   60.52   14.60
   9   7  -5   86.22   19.75
   9   7  -5   62.68   19.67
  -7  -7   5  135.62   16.28
   7   7  -5  126.56   13.90
   7   7  -5  138.32   23.17
   7   7  -5  107.57   20.86
  -5  -7   5   41.53   12.19
   5   7  -5   41.64    9.91
   5   7  -5   38.97   13.57
   5   7  -5   49.63   12.26
  -3  -7   5  154.84   15.24
   3   7  -5  150.99   11.37
   3   7  -5  158.82   14.19
   3   7  -5  140.51   15.76
  -1  -7   5  114.54   10.47
  -1  -7   5  113.48   11.93
   1   7  -5  104.15    9.70
   1   7  -5   99.58   12.16
   1   7  -5   94.24    7.23
   1  -7   5  189.78   11.08
   1  -7   5  181.83   13.15
  -1   7  -5  194.33    7.03
  -1   7  -5  184.26    7.66
  -1   7  -5  195.03   14.96
  -3  -7  -5  110.74   12.11
  -3  -7  -5  108.34   13.72
   3   7   5  121.87   14.01
   3   7   5  108.78    9.81
  -5  -7  -5   32.64   10.69
  -5  -7  -5   33.49   10.23
   5   7   5   30.40   10.36
   5   7   5   31.76    8.61
  -7  -7  -5   68.19   17.60
  -7  -7  -5   34.16   12.47
   7   7   5   52.91   13.52
   7   7   5   30.61   10.43
  -9  -7  -5   70.65   16.64
   9   7   5   77.53   19.04
   9   7   5   63.70   15.69
 -11  -7  -5   75.30   21.97
  11  -7   5   31.43    9.04
  11   7   5   57.24   15.60
  11   7   5   64.63   17.18
  13   7   5   33.14   14.16
  13   7   5   29.35   12.43
  15  -7   5   -1.26    4.83
  15   7   5   15.12   11.53
  15   7   5   13.51   13.77
  17  -7   5   26.70   12.55
  17   7   5    9.49   14.39
  17   7   5    3.99    9.01
  16  -8  -5    0.56    6.22
  16   8  -5   -4.00    5.92
  16   8  -5    9.43   10.50
  14  -8  -5  158.06   18.57
  14   8  -5  149.49   33.68
  14   8  -5  128.21   30.53
  12   8  -5    0.41    6.66
  12   8  -5    4.52    7.06
 -10  -8   5  454.84   35.44
  10   8  -5  507.34   40.14
  10   8  -5  471.68   35.38
  10   8  -5  477.55   32.58
  -8  -8   5    1.37    5.05
   8   8  -5   -0.03    4.88
   8   8  -5    5.03    7.10
   8   8  -5    5.71    6.11
  -6  -8   5  917.75   45.60
   6   8  -5  889.53   37.69
   6   8  -5  872.11   42.15
   6   8  -5  993.27   50.15
  -4  -8   5    2.48    3.96
   4  -8  -5    1.03    2.92
   4   8  -5   -2.45    3.31
   4   8  -5    1.34    3.71
   4   8  -5    3.36    4.98
   2  -8  -5  974.25   38.12
   2  -8  -5  974.14   26.31
  -2  -8   5  992.32   41.38
   2   8  -5  979.81   35.68
   2   8  -5  988.49   29.86
   2   8  -5  997.06   44.16
   0  -8  -5   -1.12    3.13
   0  -8  -5   -1.69    2.39
   0  -8   5   -0.92    2.68
   0  -8   5    0.14    2.95
   0   8  -5    0.82    1.80
   0   8  -5    1.17    3.60
   0   8   5   -1.48    3.27
   0   8  -5    3.08    2.98
  -2  -8  -5  213.95   16.26
   2  -8   5  240.76   14.80
  -2  -8  -5  224.51   19.60
   2  -8   5  254.98   12.46
   2   8   5  231.05   19.42
   2   8   5  238.21   12.18
  -2   8  -5  229.05   16.44
  -4  -8  -5   -0.10    3.66
   4  -8   5    3.59    2.54
  -4  -8  -5    2.44    4.96
   4   8   5    1.57    5.12
   4   8   5    4.37    4.16
   6  -8   5  925.17   27.30
  -6  -8  -5  826.70   42.49
  -6  -8  -5  889.95   47.58
   6   8   5  950.73   46.91
   6   8   5  878.93   38.17
   8  -8   5    4.27    3.86
  -8  -8  -5   -1.25    4.60
   8   8   5   -1.28    5.02
   8   8   5    5.73    7.28
  10  -8   5  398.84   21.08
 -10  -8  -5  330.21   33.24
  10   8   5  359.36   28.84
  10   8   5  348.52   31.34
  12  -8   5    2.22    5.13
  12   8   5    1.41    6.37
  12   8   5   -1.48    5.84
  14  -8   5   70.78   15.23
  14   8   5   57.49   18.66
  14   8   5   81.61   22.67
  16  -8   5   -3.18    4.47
  16   8   5   -0.47    6.69
  16   8   5    3.83    8.43
  15  -9  -5   57.09   15.50
  15   9  -5   16.50   13.85
  15   9  -5    4.24   10.87
  13   9  -5   40.80   16.53
  13   9  -5   40.32   15.87
  11   9  -5    4.17    9.21
  11   9  -5   15.55   11.65
  11   9  -5   36.38   14.25
   9   9  -5  117.17   15.23
   9   9  -5  125.25   24.02
   9   9  -5  124.72   23.24
  -7  -9   5  115.77   23.75
   7   9  -5  100.33   23.31
   7   9  -5   97.41   12.15
   7   9  -5   83.25   17.80
  -5  -9   5  198.85   20.49
   5   9  -5  223.42   23.17
   5   9  -5  210.10   16.20
   5   9  -5  195.29   18.43
  -3  -9   5   55.97   14.26
   3   9  -5   30.74   10.64
   3   9  -5   45.96    8.75
   3   9  -5   48.36   11.04
  -1  -9   5  100.85   10.98
  -1  -9   5  116.52   13.39
   1   9  -5  117.20    7.79
   1   9  -5  121.61    9.90
   1   9  -5  115.50   14.64
  -1  -9  -5   76.45    9.46
  -1  -9  -5   80.18   15.49
   1   9   5   86.06   16.63
   1   9   5   67.69    4.31
   1   9   5   66.98    4.52
  -3  -9  -5   76.01   10.92
  -3  -9  -5   67.92   15.65
   3   9   5   67.62   14.66
   3   9   5   58.12    7.34
  -5  -9  -5  227.29   20.77
  -5  -9  -5  256.54   25.00
   5   9   5  246.64   23.71
   5   9   5  253.40   18.15
  -7  -9  -5   35.30   11.35
  -7  -9  -5   40.77   12.65
   7   9   5   36.46   12.23
   7   9   5   44.82   12.82
   9   9   5  108.63   21.18
   9   9   5  126.65   27.22
  11  -9   5   55.78   10.80
  11   9   5   24.59   11.03
  11   9   5   22.52   11.53
  13  -9   5   23.14    8.78
  13   9   5   36.07   14.85
  13   9   5   29.41   12.85
  15  -9   5   32.04   11.17
  15   9   5   20.07   13.46
  14 -10  -5   -5.07    3.42
  14  10  -5   -3.41    5.31
  14  10  -5    4.43    9.95
  12  10  -5  139.69   28.51
  12  10  -5  134.37   27.22
  10  10  -5    5.80    9.23
  10  10  -5   11.96    8.18
   8  10  -5  237.09   27.18
   8  10  -5  223.24   19.96
   8  10  -5  215.74   22.52
   6 -10  -5    1.57    3.45
  -6 -10   5    0.88    5.92
   6  10  -5    1.85    5.66
   6  10  -5   -0.59    4.54
   6  10  -5    3.38    5.24
   4 -10  -5  515.56   26.61
   4 -10  -5  533.34   15.44
  -4 -10   5  479.49   32.64
   4  10  -5  519.85   24.07
   4  10  -5  526.59   36.31
   4  10  -5  507.69   27.98
  -2 -10   5   -0.64    3.81
   2 -10  -5   -0.41    3.28
   2 -10  -5    2.67    3.33
   2  10  -5    3.89    4.35
   2  10  -5    5.64    6.19
   2  10  -5    1.20    2.67
   0 -10   5  134.91   12.72
   0 -10  -5  155.72   13.18
   0 -10   5  134.13   14.28
   0 -10  -5  167.24   17.44
   0  10   5  152.29   16.11
   0  10  -5  154.38   17.05
   2 -10   5    3.31    3.43
   2 -10   5    0.33    3.17
  -2 -10  -5    3.47    5.75
  -2 -10  -5    1.79    4.66
   2  10   5    0.96    2.60
   2  10   5    2.76    5.73
  -2  10  -5    3.19    4.85
   2  10   5    4.22    3.01
  -4 -10  -5  651.65   35.85
  -4 -10  -5  626.63   39.84
   4 -10   5  638.02   22.19
   4  10   5  667.85   39.36
   4  10   5  661.62   29.86
  -4  10  -5  700.00   29.30
   4  10   5  682.01   28.31
   6 -10   5    3.86    3.20
  -6 -10  -5   -3.36    3.19
  -6 -10  -5    3.87    6.87
   6  10   5    1.64    6.06
   6  10   5    7.26    5.94
   8 -10   5  422.10   18.60
   8  10   5  437.89   28.74
   8  10   5  412.92   34.89
  10 -10   5    3.42    4.12
  10  10   5    7.11    8.57
  10  10   5    8.64    7.72
  12 -10   5   71.72   10.12
  12  10   5   58.77   17.20
  12  10   5   65.04   17.66
  14 -10   5    2.88    5.82
  14  10   5   29.46   12.97
  14  10   5    3.86    9.11
  13 -11  -5   31.03   10.70
  13  11  -5   15.72   14.63
  13  11  -5   14.12   11.60
  11  11  -5   31.04   15.07
  11  11  -5   36.13   14.09
   9  11  -5   19.64   12.25
   9  11  -5   32.35   12.39
   9  11  -5    1.68    8.72
  -7 -11   5   36.41   14.39
   7  11  -5   32.07   10.35
   7  11  -5   25.66   11.09
   7  11  -5   38.30   16.61
   5 -11  -5   69.31   12.89
  -5 -11   5   28.70   11.05
   5  11  -5   33.88   14.38
   5  11  -5   35.72   11.17
   5  11  -5   29.03    7.22
   3 -11  -5   22.65    8.58
  -3 -11   5   55.44   16.13
   3  11  -5   60.15   16.01
   3  11  -5   53.26   10.98
   3  11  -5   43.51    6.29
  -1 -11   5   41.92   11.28
   1  11  -5   34.28    3.84
   1  11  -5   31.35   11.09
   1  11  -5   39.83    4.72
   1 -11   5   85.16   10.08
   1 -11   5   96.16   12.06
  -1  11  -5  110.89   14.52
  -3 -11  -5   47.19   13.06
   3 -11   5   25.55    6.52
  -3 -11  -5   74.66   18.95
   3  11   5   36.34   13.51
   3  11   5   45.77    6.27
   3  11   5   46.09    6.31
  -3  11  -5   19.40    7.94
  -5 -11  -5   19.12    9.92
   5 -11   5   27.28    5.90
  -5 -11  -5   19.40   10.34
   5  11   5   14.09    7.78
   5  11   5   13.86    6.75
   5  11   5    6.23    7.33
  -7 -11  -5   45.83   15.33
   7  11   5   47.70   14.99
   7  11   5   56.34   12.59
   9 -11   5   35.73    7.09
   9  11   5    2.49    7.09
   9  11   5   11.71    9.31
  11 -11   5   20.57    6.39
  11  11   5   35.10   14.51
  11  11   5   43.02   13.14
  13 -11   5   62.10   13.25
  13  11   5   25.82   16.23
  13  11   5   15.08    9.96
  14 -12  -5  100.50   17.53
  14  12  -5  110.05   29.61
  12 -12  -5   -1.39    3.79
  12  12  -5    3.58    9.64
  12  12  -5    4.24    9.32
  10  12  -5  113.16   25.96
  10  12  -5  141.91   26.46
   8  12  -5    0.09    5.53
   8  12  -5    4.53    6.05
   8  12  -5    4.11    7.17
  -6 -12   5   87.77   22.47
   6  12  -5   58.12   18.62
   6  12  -5   59.73   13.78
   6  12  -5   67.45   13.43
  -4 -12   5   -2.45    4.12
   4 -12  -5    1.07    4.10
   4 -12  -5   -0.99    2.60
   4  12  -5    4.30    7.43
   4  12  -5    0.73    4.73
  -2 -12   5   41.99   13.01
   2 -12  -5   40.22    8.95
   2 -12  -5   40.54   12.00
   2  12  -5   42.95    6.62
   2  12  -5   45.58    7.87
   2  12  -5   55.65   15.29
   0 -12  -5    0.40    5.26
   0 -12  -5   -3.11    3.07
   0 -12   5    0.79    4.43
   0  12   5    3.25    4.62
   0  12  -5   -0.92    4.88
   2 -12   5   21.70    7.11
  -2 -12  -5   46.16   12.41
  -2 -12  -5   36.84   13.98
   2 -12   5   23.65    7.84
  -2  12  -5   18.16    7.77
   2  12   5   32.56   12.79
   4 -12   5    5.77    3.59
  -4 -12  -5   -2.96    4.64
  -4 -12  -5    2.45    5.53
   4  12   5   -0.32    3.42
  -4  12  -5    0.88    3.86
   4  12   5    0.58    5.71
   4  12   5    0.15    3.64
  -6 -12  -5  252.21   27.83
   6 -12   5  236.68   12.91
   6  12   5  215.68   25.24
   6  12   5  224.71   19.82
   6  12   5  248.67   19.98
   8 -12   5    5.43    3.14
   8  12   5    3.70    7.18
   8  12   5   -3.07    5.03
   8  12   5    4.55    5.64
  10 -12   5  112.13   10.38
  10  12   5  114.88   24.01
  10  12   5  148.93   32.98
  12 -12   5    5.87    4.84
  12  12   5    5.50   10.45
  12  12   5   30.55   12.09
  13 -13  -5   10.20    6.78
  13  13  -5   13.99   13.66
  13  13  -5   38.84   18.13
  11  13  -5   28.61   17.10
  11  13  -5    7.53    9.92
   9  13  -5   61.61   17.10
   9  13  -5   70.02   24.74
   7  13  -5   33.51   10.54
   7  13  -5    6.48    7.59
   7  13  -5    9.30    9.48
  -5 -13   5  120.55   26.27
   5  13  -5   89.24   22.04
   5  13  -5   81.92    9.94
   5  13  -5   90.93   16.11
   3 -13  -5   84.72   16.90
  -3 -13   5   41.16   14.57
   3  13  -5   28.36    6.82
   3  13  -5   50.11   17.62
   3  13  -5   37.53    6.64
   1 -13  -5   61.06   12.87
   1 -13  -5   57.77   15.51
   1 -13   5   47.94   14.19
  -1 -13  -5   86.65   19.30
   1 -13   5   46.15   11.01
   1  13   5   87.20   18.09
  -1  13  -5   38.81   12.21
  -3 -13  -5   27.52   12.84
  -3 -13  -5   31.43   11.89
   3  13   5   38.58   13.24
  -5 -13  -5   96.31   25.42
   5  13   5  111.45   11.55
   5  13   5   90.32   23.24
   5  13   5  106.95   11.55
   7 -13   5   31.32    6.25
   7  13   5   17.16   10.89
   7  13   5   16.97    8.54
   7  13   5    8.15    6.78
   9  13   5   65.31   17.72
   9  13   5   85.87   25.58
  11  13   5   10.94    9.41
  11  13   5   27.15   12.78
  12  14  -5   84.10   30.54
  12  14  -5   48.39   18.55
  10  14  -5   18.38   14.10
  10  14  -5    9.13    9.39
   8  14  -5   98.52   23.91
   8  14  -5  129.66   18.26
   8  14  -5  115.91   16.54
   6 -14  -5    2.24    3.78
   6  14  -5   12.54    6.49
   6  14  -5    1.26    5.01
   6  14  -5    1.17    7.33
   4 -14  -5  227.06   16.62
   4 -14  -5  222.67   21.10
  -4 -14   5  215.06   25.13
   4  14  -5  194.17   13.06
   4  14  -5  220.69   27.51
   4  14  -5  191.74   15.42
   2 -14  -5    1.28    5.08
  -2 -14   5   -2.02    5.18
   2 -14  -5    2.45    5.68
   2  14  -5   -2.53    5.43
   0 -14  -5  113.44   20.31
   0 -14   5   76.02   17.57
   0 -14  -5   95.73   20.60
   0  14  -5   81.40   18.64
   2 -14   5    0.82    4.28
  -2 -14  -5    3.56    8.52
   2 -14   5   -0.19    3.80
  -2 -14  -5    1.84    7.11
  -2  14  -5   -0.69    4.25
   2  14   5    4.33    6.89
   4 -14   5  159.60   13.90
   4  14   5  137.23    9.08
   4  14   5  150.13    9.25
   4  14   5  126.56   27.43
  -4  14  -5  175.00   16.02
   6 -14   5    9.85    4.35
   6  14   5    5.04    5.08
   6  14   5    6.99   10.19
   6  14   5    3.44    5.29
   8 -14   5  167.11   11.40
   8  14   5  148.21   36.32
   8  14   5  126.89   16.88
   8  14   5  120.18   17.41
  10 -14   5   13.11    4.22
  10  14   5   -1.85    6.14
  10  14   5    1.39    8.01
   9  15  -5   21.08   12.72
   9  15  -5   13.79    8.74
   9  15  -5   27.41   12.12
   7  15  -5   55.25   14.35
   7  15  -5   45.17   15.76
   7  15  -5   58.79   13.56
   5 -15  -5   31.67   10.68
   5  15  -5   19.36    7.15
   5  15  -5   15.18   10.81
  -3 -15   5   18.96   13.82
   3 -15  -5   17.28    8.72
   3 -15  -5    4.80    6.76
   3  15  -5   43.13   16.74
   1 -15  -5   30.89   11.58
  -1 -15   5    9.19    9.15
   1 -15  -5   29.25   13.83
   1  15  -5    4.60    7.37
  -1 -15  -5   15.67   10.75
   1 -15   5   31.15   11.26
  -1  15  -5   19.12    9.78
   3 -15   5   21.24    8.01
   3  15   5   23.58   12.53
  -3  15  -5   25.65    9.59
   5 -15   5   50.51   10.72
   5  15   5   34.76   14.54
   7 -15   5   25.36    6.87
   7  15   5   47.59   12.65
   7  15   5   13.13   12.37
   9  15   5   25.07   13.53
   9  15   5   21.56   10.67
   8  16  -5    6.02    7.63
   8  16  -5    5.95   10.16
   8  16  -5   -0.59    4.40
   6  16  -5  177.94   37.12
   4 -16  -5   -3.60    4.41
   4  16  -5    3.16    8.65
   2 -16  -5  238.51   24.58
   2  16  -5  195.92   25.88
   0 -16   5    1.71    6.77
   0 -16  -5    4.58    7.56
   0  16  -5   12.33    8.21
  -2  16  -5   50.13   14.16
   2  16   5   68.88   19.84
  -4  16  -5    6.39    5.76
   4  16   5    5.67    9.39
   6  16   5  104.36   28.29
   8 -16   5    4.88    4.19
   8  16   5   11.57   10.32
   8  16   5    4.53    5.52
   8  16   5    1.30    4.94
   7  17  -5   -0.07    3.77
   7  17  -5   11.77   13.20
   5  17  -5   55.79   21.33
   3 -17  -5   12.87   10.21
   3  17  -5   18.00   12.08
   1 -17  -5    9.08   11.89
   1  17  -5   73.37   21.13
   1 -17   5   27.75   12.82
  -1  17  -5   11.49    8.54
   3  17   5   16.61   12.01
  -3  17  -5   31.87   12.77
   5  17   5   18.31   13.34
   2  18  -5   -1.92    7.21
   0  18  -5  108.57   25.72
  -2  18  -5    4.35    6.63
  18   0  -6    4.55    7.81
  18   0  -6   10.52   11.79
  16   0  -6  109.55   25.92
  16   0  -6  118.63   22.98
  14   0  -6    2.67    6.83
  14   0  -6   -3.76    5.42
  12   0  -6  403.33   28.01
  10   0  -6   -0.45    3.26
   8   0  -6  405.86   23.50
   6   0  -6    1.03    3.13
   4   0  -6 1240.49   36.72
   4   0  -6 1155.81   35.02
   2   0  -6   -0.58    1.85
  -2   0   6    0.44    2.13
   0   0  -6 4112.88  367.81
   0   0  -6 3858.92  131.33
   0   0   6 3840.81  131.12
  -2   0  -6   -0.33    2.25
   2   0   6    1.18    2.20
  -4   0  -6 1571.85   45.08
  -4   0  -6 1611.88   43.97
  -6   0  -6   -0.38    2.76
  -6   0  -6    0.00    3.54
   6   0   6    0.87    3.64
   8   0   6  121.94   13.35
  -8   0  -6  117.09   12.08
  -8   0  -6  116.93   13.17
 -10   0  -6    1.61    4.07
  10   0   6    8.69    7.16
  12   0   6  440.54   30.98
 -12   0  -6  438.23   27.73
  14   0   6   -1.54    6.05
 -14   0  -6    3.27    5.69
 -16   0  -6  168.31   19.89
  16   0   6  211.82   24.15
  18   0   6    1.62    8.68
 -18   0  -6    0.63    4.19
  17  -1  -6   58.73   19.52
  17  -1  -6   40.90   13.79
  17   1  -6    8.00   11.23
  17   1  -6   11.12   11.25
  15  -1  -6   27.69   10.67
  15  -1  -6   29.50   12.96
  15   1  -6   71.84   18.49
  15   1  -6   77.99   20.58
  13   1  -6   48.21   14.39
  13   1  -6   50.30   15.41
  11  -1  -6   28.34    9.30
  11   1  -6   75.46   16.56
   9  -1  -6   79.96   10.27
   9   1  -6   41.14   11.34
   7   1  -6   73.68   13.07
   5  -1  -6  129.22   10.04
   3   1  -6  195.90   12.39
   3   1  -6  200.23   11.49
  -1  -1   6  165.21    8.94
   1   1  -6  126.65    7.45
   1  -1   6  194.27    9.17
  -1   1  -6  186.40    9.29
  -3  -1  -6  233.02   13.51
  -3  -1  -6  255.20   14.01
   3   1   6  269.63   13.75
  -5  -1  -6   58.52   11.64
   5  -1   6  106.80    9.81
  -5   1  -6   94.67    9.50
  -5   1  -6   98.88    8.56
  -7  -1  -6   58.59   12.52
  -7  -1  -6   79.03   13.61
   7  -1   6   23.46    8.12
  -7   1  -6   34.86    9.20
  -7   1  -6   33.30    7.96
   7   1   6   58.39   11.70
   7   1   6   55.61    8.20
  -9  -1  -6   70.57   14.66
   9   1   6   64.54    9.60
   9   1   6   80.46   16.29
 -11  -1  -6   86.01   12.77
  11   1   6  123.05   16.18
  11   1   6  109.71   12.71
  13  -1   6  173.31   20.16
 -13   1  -6  201.12   17.91
  15  -1   6   41.50   15.10
 -15  -1  -6   53.53   15.09
  15   1   6   70.81   18.70
 -15   1  -6   25.91    9.53
 -17  -1  -6   22.58   10.36
  17  -1   6   39.48   15.75
  17   1   6   21.61   14.21
  18  -2  -6   40.79   16.89
  18  -2  -6   60.64   15.40
  18   2  -6   49.48   19.39
  18   2  -6   43.03   16.44
  16  -2  -6    4.59    8.67
  16  -2  -6    2.76    5.60
  16   2  -6    5.30    8.30
  16   2  -6    4.34    7.45
  14  -2  -6  185.47   17.89
  14   2  -6  186.11   22.54
  14   2  -6  177.87   22.30
  12  -2  -6    2.27    3.99
  12   2  -6    1.23    5.09
 -10  -2   6  555.24   30.54
  10  -2  -6  563.84   28.28
  10   2  -6  623.11   35.43
  -8  -2   6    0.52    3.18
   8  -2  -6    0.11    2.78
   8   2  -6    0.28    4.01
  -6  -2   6  433.34   22.69
   6  -2  -6  419.21   18.89
   6   2  -6  427.43   24.24
   4   2  -6   -0.61    2.43
   4   2  -6   -0.24    2.64
  -2  -2   6   15.16    4.63
   2  -2  -6   15.19    3.49
   2   2  -6   14.07    4.06
  -2   2   6   13.50    3.42
   2   2  -6    5.90    3.21
   0  -2   6    2.57    2.29
   0  -2  -6    2.36    2.30
   0   2   6   -1.51    1.74
   0   2  -6    1.15    2.01
   2  -2   6   30.60    4.18
  -2  -2  -6   37.03    7.04
  -2  -2  -6   28.02    6.07
   2   2   6   41.23    6.66
  -2   2  -6   32.48    4.36
   4  -2   6    1.34    2.75
  -4  -2  -6    2.31    3.97
  -4  -2  -6   -0.17    2.66
   4   2   6    6.82    4.00
  -4   2  -6    1.03    2.98
  -6  -2  -6  103.73   12.09
   6  -2   6  117.00   10.86
  -6  -2  -6  114.96   12.46
  -6   2  -6  107.04   10.19
  -6   2  -6  114.97    9.05
   6   2   6  103.64   11.12
   6   2   6  104.68   11.65
  -8  -2  -6    5.23    5.90
   8  -2   6    0.84    3.88
  -8  -2  -6    2.00    4.58
  -8   2  -6   -0.96    2.71
   8   2   6   -0.55    3.24
   8   2   6    3.76    5.07
  10  -2   6  383.28   25.27
 -10  -2  -6  398.85   27.55
  10   2   6  383.00   27.22
  10   2   6  385.13   25.30
 -10   2  -6  419.86   21.88
 -12  -2  -6   11.15    7.60
  12  -2   6   -1.10    5.11
 -12   2  -6   -0.56    3.35
  12   2   6    5.07    5.68
  12   2   6   -6.16    4.03
 -14  -2  -6  133.24   18.25
  14  -2   6  139.05   18.13
  14   2   6  131.55   18.95
  14   2   6  119.39   15.79
  16  -2   6   -0.44    6.28
 -16  -2  -6    1.64    6.12
  16   2   6    1.85    7.61
  18  -2   6  100.23   26.10
  18   2   6   94.52   25.34
  17  -3  -6   23.42   12.65
  17   3  -6   45.08   19.06
  17   3  -6   23.47   12.01
  15  -3  -6   51.40   12.63
  15  -3  -6   56.82   16.77
  15   3  -6   25.56   12.31
  15   3  -6   11.42    9.93
 -13  -3   6   67.38   16.69
  13  -3  -6   37.44   10.69
  13   3  -6   65.92   18.93
  13   3  -6   64.45   19.22
 -11  -3   6   47.55   12.16
  11   3  -6   36.06   12.31
  -9  -3   6  188.77   17.48
   9   3  -6  180.18   18.98
  -7  -3   6  110.88   12.55
   7   3  -6  118.27   14.22
  -5  -3   6  368.16   21.09
   5   3  -6  390.39   23.16
   5   3  -6  382.59   20.60
  -3  -3   6   84.20    8.89
  -3  -3   6   64.76    7.98
   3   3  -6   71.60    7.51
   3   3  -6   77.14    9.20
  -1  -3   6  120.68    8.70
   1   3  -6  115.95    9.68
   1   3  -6  121.42    7.71
  -1  -3  -6   35.13    4.80
  -1  -3  -6   34.55    7.43
   1   3   6   31.10    4.08
  -3  -3  -6  168.00   13.37
  -3  -3  -6  146.04   11.72
   3   3   6  144.26   10.73
   3   3   6  165.34   12.74
  -5  -3  -6  481.50   25.54
  -5  -3  -6  536.20   27.86
   5   3   6  515.21   25.82
   5   3   6  590.51   26.31
  -7  -3  -6   79.17   14.95
  -7  -3  -6   65.36   12.92
   7   3   6   69.70   13.93
   7   3   6   56.00   11.99
  -9  -3  -6  167.62   17.72
  -9  -3  -6  186.39   18.80
   9   3   6  138.80   15.67
   9   3   6  156.75   16.98
  11  -3   6   21.82    9.08
 -11  -3  -6    6.92    7.04
  11   3   6    6.47    7.21
  11   3   6   12.76    7.44
 -13  -3  -6   90.74   19.38
  13  -3   6   52.08   14.66
  13   3   6  108.87   22.14
  13   3   6   95.27   14.12
  15  -3   6   53.21   15.58
 -15  -3  -6    8.74    9.20
  15   3   6   24.53   12.54
  15   3   6   21.81    9.67
  17  -3   6   29.31   13.49
  17   3   6   60.91   20.14
  18  -4  -6    0.91    5.46
  18   4  -6    3.89    8.15
  18   4  -6    3.35    8.44
  16  -4  -6   70.55   18.65
  16   4  -6   73.01   22.55
  16   4  -6   59.45   19.75
  14   4  -6   -4.18    3.63
  14   4  -6    5.22    8.41
 -12  -4   6  100.45   20.32
  12   4  -6  118.67   24.25
  12   4  -6  152.35   29.45
 -10  -4   6    3.73    5.39
  10  -4  -6   -0.29    2.72
  10   4  -6   -5.24    4.04
  -8  -4   6  506.28   30.13
   8  -4  -6  556.88   22.39
   8   4  -6  561.22   33.91
  -6  -4   6    0.06    3.49
   6   4  -6   -2.14    2.91
   6   4  -6    3.75    4.41
  -4  -4   6 1824.48   56.07
   4   4  -6 1819.02   51.90
   4   4  -6 1883.80   59.12
  -2  -4   6   -2.35    1.97
   2  -4  -6    0.51    1.72
  -2  -4   6    0.70    2.97
   2   4  -6   -0.01    2.52
   2   4  -6    1.37    3.34
   0  -4  -6 2209.69   58.16
   0   4  -6 2210.12   57.31
  -2  -4  -6   -0.96    2.65
  -2  -4  -6    1.56    2.85
   2  -4   6    2.18    2.47
   2   4   6    1.02    2.93
  -2   4  -6   -0.20    2.07
  -2   4  -6    0.20    2.24
   2   4   6    2.21    2.78
  -4  -4  -6  402.38   24.11
   4  -4   6  433.67   16.68
  -4  -4  -6  386.60   21.79
   4   4   6  411.31   23.16
   4   4   6  402.87   20.40
  -4   4  -6  417.36   15.08
   6  -4   6   -0.82    2.80
  -6  -4  -6    3.73    4.85
  -6  -4  -6    2.40    4.84
   6   4   6    2.14    4.51
   6   4   6    0.92    3.80
   8  -4   6 1019.68   38.12
  -8  -4  -6 1153.39   49.81
  -8  -4  -6 1065.89   47.52
   8   4   6 1142.07   46.62
   8   4   6 1104.28   46.38
 -10  -4  -6    1.54    5.71
  10  -4   6   -0.87    4.03
  10   4   6    1.93    6.23
  10   4   6    1.29    4.77
  12  -4   6  395.34   26.74
 -12  -4  -6  368.75   31.06
  12   4   6  409.27   31.50
  12   4   6  351.71   28.85
  14  -4   6    0.35    5.51
 -14  -4  -6   -0.62    5.99
  14   4   6    2.83    7.54
  14   4   6    9.30    8.90
  16  -4   6  103.02   22.70
  16   4   6   63.34   19.00
  16   4   6   74.58   21.95
  17  -5  -6   29.94   14.35
  17   5  -6    4.51   10.97
  17   5  -6    3.10    8.75
  15   5  -6  118.09   28.06
  15   5  -6  112.77   28.15
 -13  -5   6   65.99   21.24
  13   5  -6   51.63   15.61
  13   5  -6   72.09   19.22
 -11  -5   6  113.49   22.79
  11   5  -6  106.95   24.39
  11   5  -6  137.08   27.74
  -9  -5   6   63.90   14.61
   9   5  -6   41.87   12.13
  -7  -5   6  127.01   14.67
   7   5  -6  114.64   13.20
   7   5  -6  106.64   14.81
  -5  -5   6  144.46   14.54
   5   5  -6  134.05   15.36
   5   5  -6  163.73   13.79
  -3  -5   6  230.37   15.77
  -3  -5   6  214.09   16.18
   3   5  -6  241.25   18.32
   3   5  -6  196.21   12.80
  -1  -5   6  221.80   14.55
  -1  -5   6  239.31   13.66
   1   5  -6  204.96   15.31
   1   5  -6  205.64   10.77
  -1  -5  -6   86.98   10.12
  -1  -5  -6   58.44    6.91
   1   5   6   64.48    5.68
  -3  -5  -6  225.16   15.66
  -3  -5  -6  236.55   18.39
   3   5   6  226.97   17.16
   3   5   6  229.89   13.77
  -5  -5  -6   59.30   12.45
  -5  -5  -6   81.06   15.39
   5   5   6   59.96   11.94
   5   5   6   52.27   10.82
  -7  -5  -6   66.28   15.10
  -7  -5  -6   77.94   17.29
   7   5   6   74.13   14.68
   7   5   6   90.75   18.01
  -9  -5  -6   38.24   12.52
  -9  -5  -6   17.05    8.46
   9   5   6   32.63   12.00
   9   5   6   32.13   11.42
 -11  -5  -6   77.56   18.53
  11   5   6  128.90   24.42
  11   5   6  138.79   25.39
 -13  -5  -6   32.67   13.69
  13   5   6   57.29   16.98
  13   5   6   38.84   13.25
  15   5   6   59.25   18.04
  15   5   6   34.49   13.37
  17  -5   6   43.97   19.27
  17   5   6   12.54   10.05
  17   5   6   12.85   13.86
  16  -6  -6   -2.42    5.27
  16   6  -6    4.85    9.03
  16   6  -6    7.28   10.99
  14   6  -6  176.01   24.29
  14   6  -6  206.54   37.10
 -12  -6   6   13.51    9.64
  12   6  -6    3.81    8.26
  12   6  -6    4.87    7.06
 -10  -6   6  282.55   25.30
  10   6  -6  232.85   24.35
  10   6  -6  271.88   27.42
  10   6  -6  249.30   22.63
  -8  -6   6   -1.23    2.95
   8   6  -6    3.03    5.38
   8   6  -6   -0.55    5.33
   8   6  -6    8.16    6.74
  -6  -6   6  718.31   36.26
   6   6  -6  735.50   39.47
   6   6  -6  680.72   31.89
   4  -6  -6    3.49    1.88
   4  -6  -6   -0.66    2.68
  -4  -6   6    6.24    4.74
   4   6  -6    2.74    4.07
   4   6  -6   -0.43    3.47
  -2  -6   6 1997.53   59.00
   2  -6  -6 1794.73   53.12
  -2  -6   6 1858.89   54.47
   2   6  -6 1972.12   61.78
   2   6  -6 1960.45   48.90
   0  -6   6    2.08    3.39
   0  -6  -6   -0.03    2.90
   0  -6  -6    1.88    3.75
   0  -6   6    4.33    3.61
   0   6  -6    1.86    3.84
   0   6  -6    6.67    2.97
   0   6   6    6.21    2.34
   2  -6   6  976.13   27.74
  -2  -6  -6  951.17   40.11
  -2  -6  -6  917.80   33.76
   2   6   6 1019.22   29.64
  -2   6  -6  969.45   23.53
  -2   6  -6  968.24   32.99
   2   6   6  994.12   38.92
   4  -6   6    2.38    2.59
  -4  -6  -6    0.73    4.23
  -4  -6  -6    3.06    5.05
   4   6   6    3.26    4.28
   4   6   6    2.77    4.01
   6  -6   6  662.12   23.87
  -6  -6  -6  631.02   36.35
  -6  -6  -6  669.17   35.28
   6   6   6  712.86   32.77
   6   6   6  674.29   35.73
  -8  -6  -6   -2.86    3.29
  -8  -6  -6   10.88    7.29
   8  -6   6    4.33    4.10
   8   6   6    4.87    6.29
   8   6   6    3.01    5.73
 -10  -6  -6 1302.56   61.60
  10  -6   6 1236.62   44.39
  10   6   6 1219.04   54.53
  10   6   6 1239.35   57.03
 -12  -6  -6   -1.26    5.88
  12  -6   6    1.65    5.28
  12   6   6    6.38    7.58
  12   6   6    0.01    5.30
  14  -6   6   96.26   18.62
  14   6   6  120.05   25.44
  14   6   6  144.83   29.12
  16  -6   6    1.14    7.07
  16   6   6   21.32   12.83
  16   6   6    2.68    6.83
  17  -7  -6    3.41    7.74
  17   7  -6   18.09   15.01
  17   7  -6   18.77   14.76
  15  -7  -6   54.41   15.60
  15   7  -6   31.09   15.69
  15   7  -6   26.55   14.49
  13   7  -6   64.97   18.31
  13   7  -6   69.12   20.21
 -11  -7   6   40.65   14.45
  11   7  -6   48.84   16.71
  11   7  -6   46.87   16.22
  -9  -7   6  136.50   24.99
   9   7  -6   96.15   13.87
   9   7  -6   88.10   18.50
   9   7  -6   98.66   20.37
  -7  -7   6   53.55   14.88
   7   7  -6   38.76   13.09
   7   7  -6   47.21   13.09
   7   7  -6   64.94   14.65
  -5  -7   6  139.43   15.44
   5   7  -6  132.05   16.53
   5   7  -6  147.66   13.35
   5   7  -6  128.73   14.97
  -3  -7   6  142.13   14.51
   3   7  -6  134.00   10.74
   3   7  -6  125.07   15.00
   3   7  -6  142.08   13.61
  -1  -7   6  322.38   20.13
  -1  -7   6  323.28   18.14
   1   7  -6  326.20   22.02
   1   7  -6  332.22   18.06
   1   7  -6  365.40   14.81
   1  -7   6   67.70    7.12
   1  -7   6   72.11    8.52
  -1   7  -6   60.69    5.69
  -1   7  -6   52.45    4.54
  -1   7  -6   66.07    9.37
  -3  -7  -6   65.17   13.72
  -3  -7  -6   71.98   10.13
   3   7   6   68.81   14.11
   3   7   6   61.24    7.58
  -5  -7  -6  108.99   13.87
  -5  -7  -6  101.94   14.52
   5   7   6  122.12   12.50
   5   7   6  121.45   15.16
  -7  -7  -6   14.01    8.15
  -7  -7  -6   27.17   10.78
   7   7   6   24.69    8.67
   7   7   6   15.65    8.77
  -9  -7  -6  126.05   25.35
   9   7   6  106.15   20.09
   9   7   6   93.81   20.17
 -11  -7  -6   17.04   12.05
  11   7   6    9.60    8.34
  11   7   6    8.09    9.15
  13   7   6   65.90   19.59
  13   7   6   87.59   21.71
  15  -7   6   51.34   14.59
  15   7   6   37.04   16.54
  16  -8  -6   65.49   19.59
  16   8  -6   17.80   14.47
  16   8  -6   54.44   22.48
  14   8  -6    4.41    7.25
  14   8  -6    5.83    9.44
  12   8  -6  118.40   28.52
  12   8  -6   98.02   22.11
 -10  -8   6   13.12   11.42
  10   8  -6    2.80    7.28
  10   8  -6   15.46    8.87
  10   8  -6   10.62    8.74
  -8  -8   6  296.23   26.56
   8   8  -6  345.39   30.82
   8   8  -6  310.06   23.80
   8   8  -6  350.11   28.24
  -6  -8   6   -1.84    3.49
   6   8  -6   -1.71    4.42
   6   8  -6    3.82    5.95
   6   8  -6    2.88    4.76
  -4  -8   6  853.64   40.78
   4  -8  -6  851.91   19.95
   4  -8  -6  800.09   32.13
   4   8  -6  895.95   32.65
   4   8  -6  853.76   37.81
   4   8  -6  849.19   43.19
  -2  -8   6   -2.61    2.93
  -2  -8   6    0.09    3.31
   2  -8  -6    2.74    2.44
   2   8  -6    1.17    2.71
   2   8  -6   -2.60    3.15
   2   8  -6    2.19    4.80
   0  -8   6  974.19   37.46
   0  -8  -6  956.82   32.14
   0  -8  -6  937.12   40.64
   0  -8   6  984.34   33.46
   0   8  -6 1007.22   41.07
   0   8  -6  933.79   29.71
   0   8  -6  954.52   25.86
  -2  -8  -6   -0.58    3.35
   2  -8   6    2.73    2.85
  -2  -8  -6    1.66    4.06
   2   8   6    0.74    4.50
   2   8   6   -0.18    2.47
  -2   8  -6    2.27    3.67
  -4  -8  -6  245.58   22.56
   4  -8   6  250.28   12.38
  -4  -8  -6  230.23   19.34
   4   8   6  266.89   16.71
   4   8   6  251.30   22.09
  -6  -8  -6   11.86    7.94
   6  -8   6    2.36    3.48
  -6  -8  -6    1.06    3.35
   6   8   6    6.04    6.32
   6   8   6    3.12    5.48
  -8  -8  -6  420.48   33.58
  -8  -8  -6  447.54   32.37
   8  -8   6  434.55   19.92
   8   8   6  414.85   28.13
   8   8   6  427.32   32.75
  10  -8   6   -2.10    3.55
  10   8   6    7.28    6.97
  10   8   6   -3.17    4.27
  12  -8   6  207.47   17.66
  12   8   6  201.49   23.53
  12   8   6  202.17   24.96
  14  -8   6    5.40    6.12
  14   8   6    2.84    8.92
  14   8   6   -1.53    6.16
  16  -8   6   96.08   22.40
  16   8   6   49.74   17.74
  16   8   6   79.50   21.94
  15  -9  -6   16.49   12.58
  15   9  -6   38.87   17.23
  15   9  -6   50.95   20.25
  13   9  -6    8.35   10.35
  13   9  -6    3.80    8.80
  11   9  -6   70.60   22.11
  11   9  -6   68.45   17.87
  11   9  -6   83.22   21.53
   9   9  -6   65.06   14.18
   9   9  -6   47.18   16.71
   9   9  -6   44.17   13.89
  -7  -9   6  160.63   19.58
   7   9  -6  141.81   17.79
   7   9  -6  170.79   16.14
   7   9  -6  131.84   19.62
  -5  -9   6  114.20   15.26
   5   9  -6   91.81   13.15
   5   9  -6  111.34   11.64
   5   9  -6   96.08   20.90
  -3  -9   6   91.97   13.09
   3   9  -6  108.53    9.71
   3   9  -6  101.91   11.96
   3   9  -6   94.37   19.91
  -1  -9   6   50.07   10.31
  -1  -9   6   32.84    9.31
   1  -9  -6   72.38   10.72
   1   9  -6   39.25   11.44
   1   9  -6   38.99    6.48
   1   9  -6   37.98    8.32
  -1  -9  -6   55.36   13.41
  -1  -9  -6   58.06   11.31
   1   9   6   52.12   13.52
   1   9   6   35.13    3.54
   1   9   6   42.85    3.96
  -3  -9  -6  181.76   16.81
  -3  -9  -6  205.48   20.68
   3   9   6  232.86   13.91
   3   9   6  216.01   20.59
  -5  -9  -6   75.24   16.43
  -5  -9  -6   94.15   18.54
   5   9   6   99.44   20.05
   5   9   6   79.43   10.71
  -7  -9  -6   80.28   22.21
  -7  -9  -6  131.54   17.44
   7   9   6  109.79   21.26
   7   9   6  110.16   14.20
   9   9   6   41.12   14.13
   9   9   6   30.99   10.67
  11  -9   6   23.23    7.72
  11   9   6   40.31   14.91
  11   9   6   54.18   16.08
  13  -9   6   52.54   12.61
  13   9   6   18.52   11.82
  13   9   6   39.36   14.09
  15  -9   6    4.99    7.10
  15   9   6   18.68   12.11
  15   9   6   36.26   17.56
  14 -10  -6  113.64   21.29
  14  10  -6  133.69   30.15
  14  10  -6  101.67   29.25
  12  10  -6    1.39    6.82
  12  10  -6    6.70    7.36
  10  10  -6  286.23   32.92
  10  10  -6  274.54   27.54
   8  10  -6    2.44    6.88
   8  10  -6    4.11    5.48
   8  10  -6    3.79    6.63
  -6 -10   6  291.07   26.56
   6 -10  -6  336.10   19.40
   6  10  -6  310.64   29.31
   6  10  -6  325.97   21.77
   6  10  -6  323.72   25.29
   4 -10  -6    2.81    2.20
  -4 -10   6   -1.79    3.58
   4 -10  -6    0.34    4.27
   4  10  -6    7.63    5.16
   4  10  -6   -1.77    4.06
   4  10  -6   -2.76    4.41
  -2 -10   6  425.69   28.39
   2 -10  -6  436.38   18.99
   2 -10  -6  460.34   27.63
   2  10  -6  443.70   31.34
   2  10  -6  459.03   22.80
   2  10  -6  461.82   18.70
   0 -10   6   -0.78    3.53
   0 -10   6    2.82    4.56
   0 -10  -6   -2.82    3.18
   0 -10  -6    2.04    3.89
   0  10  -6    4.78    4.99
  -2 -10  -6  283.47   24.30
   2 -10   6  266.40   15.58
  -2 -10  -6  259.29   19.76
   2  10   6  278.01   13.68
   2  10   6  270.04   23.19
   2  10   6  265.66   11.91
  -2  10  -6  258.19   19.85
  -4 -10  -6   -0.25    5.91
  -4 -10  -6    4.71    6.15
   4 -10   6    1.35    2.91
  -4  10  -6   -2.28    3.15
   4  10   6    8.14    5.24
   4  10   6    0.58    5.60
   6 -10   6   33.84    6.98
  -6 -10  -6   19.92   11.08
  -6 -10  -6    8.46    9.14
   6  10   6   16.74    7.25
   6  10   6   21.87   11.04
   8 -10   6    3.90    3.61
   8  10   6    1.32    6.43
   8  10   6    4.12    6.46
  10 -10   6  145.17   12.55
  10  10   6  153.70   18.41
  10  10   6  166.36   22.62
  12 -10   6    2.17    4.85
  12  10   6    1.83    7.39
  12  10   6   -0.77    6.62
  14 -10   6  102.60   14.06
  14  10   6  140.99   33.03
  14  10   6  144.75   29.09
  13 -11  -6   19.12    9.06
  13  11  -6   40.65   17.04
  13  11  -6   34.49   17.16
  11  11  -6   12.13   12.61
  11  11  -6    7.80    9.12
   9  11  -6   46.77   14.65
   9  11  -6   44.88   17.34
  -7 -11   6   13.63    9.62
   7  11  -6    5.72    6.48
   7  11  -6    6.06    7.74
   7  11  -6    1.02    6.69
   5 -11  -6   25.72    3.08
  -5 -11   6   57.75   15.23
   5 -11  -6   28.34    8.46
   5  11  -6   61.91   16.51
   3 -11  -6   22.06    7.74
  -3 -11   6    8.26    7.34
   3 -11  -6   34.21    6.45
   3  11  -6   20.25    5.80
   3  11  -6    5.29    7.13
   3  11  -6    9.81    6.57
   1 -11  -6   88.37   17.97
  -1 -11   6  141.71   15.88
   1  11  -6  131.09    7.72
   1  11  -6  120.52   16.58
  -1 -11  -6   45.19   11.06
  -1 -11  -6   43.95   13.60
   1 -11   6   13.81    6.01
   1 -11   6   23.14    7.57
   1  11   6   31.38    9.89
  -1  11  -6   18.66    9.16
  -3 -11  -6   21.59    8.91
  -3 -11  -6   38.09   12.06
   3  11   6   21.95   10.55
   3  11   6   33.61    7.45
   3  11   6   19.50    5.50
  -5 -11  -6   75.09   18.34
  -5 -11  -6   77.57   17.64
   5  11   6   67.35   12.98
   5  11   6   52.27   14.74
   5  11   6   67.42    9.78
  -7 -11  -6   18.21   10.56
  -7 -11  -6    2.92   13.56
   7 -11   6   29.66    6.51
   7  11   6   28.97   12.88
   7  11   6    6.47    6.46
   9 -11   6   29.72    6.69
   9  11   6   47.10   17.63
   9  11   6   61.34   16.32
  11  11   6   33.93   16.05
  11  11   6   26.69   10.94
  13  11   6   79.46   21.69
  13  11   6   61.43   18.23
  14 -12  -6    0.11    5.30
  14  12  -6   11.42    9.74
  14  12  -6    9.61   10.17
  12  12  -6  101.42   24.64
  12  12  -6  114.19   27.80
  10  12  -6    0.18    6.67
  10  12  -6    5.92    7.53
   8  12  -6   83.95   20.80
   8  12  -6  120.75   21.79
   8  12  -6   92.72   19.92
   6 -12  -6   -0.13    3.62
  -6 -12   6   -0.42    6.45
   6  12  -6    3.11    6.50
   6  12  -6    2.55    4.77
   6  12  -6   -1.56    5.73
  -4 -12   6  132.62   17.92
   4 -12  -6  128.82   14.42
   4 -12  -6  121.45    9.22
   4  12  -6  170.76   30.94
   4  12  -6  118.31   11.09
   4  12  -6  112.45   13.01
  -2 -12   6   -1.71    4.53
   2 -12  -6    0.58    3.76
   2 -12  -6    1.43    5.53
   2  12  -6   -0.75    3.28
   2  12  -6    0.53    4.97
   2  12  -6    9.94    3.69
   0 -12   6  252.79   19.56
   0 -12  -6  289.02   25.56
   0 -12   6  277.53   22.43
   0 -12  -6  291.70   20.61
   0  12  -6  262.15   24.47
  -2 -12  -6    1.69    5.68
  -2 -12  -6    1.06    5.44
   2 -12   6    7.66    4.47
   2 -12   6    4.97    4.83
   2  12   6    5.17    7.82
  -2  12  -6    1.68    5.03
  -4 -12  -6    6.10    8.46
   4 -12   6    9.55    4.91
  -4 -12  -6    2.56    7.15
   4  12   6   15.14    6.24
  -4  12  -6   10.09    5.85
   4  12   6   -0.76    3.85
   4  12   6   17.38    9.52
  -6 -12  -6    2.64    7.97
  -6 -12  -6   -3.64    3.69
   6 -12   6   14.06    4.14
   6  12   6    0.92    4.65
   6  12   6    4.48    6.66
   6  12   6    7.31    5.99
   8 -12   6    7.71    4.53
   8  12   6   -0.09    5.72
   8  12   6   -1.41    6.28
  10 -12   6    2.67    4.05
  10  12   6    9.19   11.04
  10  12   6    9.39    6.65
  12 -12   6  144.92   13.59
  12  12   6  142.26   27.99
  12  12   6  124.49   27.50
  13 -13  -6   37.55    9.31
  13  13  -6   19.97   12.19
  13  13  -6   10.75   12.14
  11  13  -6   67.13   23.49
  11  13  -6   41.98   16.11
   9  13  -6   22.86   12.00
   9  13  -6   39.17   17.75
   9  13  -6   39.08   13.47
   7  13  -6   35.12   15.70
   7  13  -6   52.99   14.37
   7  13  -6   49.72   12.96
  -5 -13   6   25.81   12.64
   5  13  -6   28.41    7.80
   5  13  -6   36.28   11.13
   5  13  -6   26.56   11.95
   3 -13  -6   45.31   13.42
  -3 -13   6  111.41   23.29
   3  13  -6   96.50    8.43
   3  13  -6   83.47    9.60
   3  13  -6   82.76   20.17
   1 -13  -6   96.97   20.27
   1 -13  -6   85.99   11.45
  -1 -13  -6   57.20   13.75
   1 -13   6   90.90   12.56
  -1 -13  -6   35.87   13.44
   1  13   6   50.06   14.56
   3 -13   6   39.00    8.85
  -3 -13  -6  110.77   20.83
  -3 -13  -6   70.32   18.39
   3  13   6   96.06   21.48
  -3  13  -6   42.38   12.58
  -5 -13  -6   38.19   13.92
   5 -13   6   51.91    7.41
  -5 -13  -6    3.84    8.31
   5  13   6    5.00    7.72
   5  13   6   33.58    8.53
   5  13   6   22.44    7.60
   7  13   6   64.05   14.61
   7  13   6   57.39   18.17
   7  13   6   71.04   16.27
   9  13   6   24.87   16.65
   9  13   6   25.42   10.11
  11 -13   6   35.47    7.60
  11  13   6   49.41   20.50
  11  13   6   58.55   15.39
  12  14  -6    3.23    9.44
  12  14  -6    7.14    9.12
  10  14  -6  116.97   24.06
  10  14  -6   99.12   26.12
   8  14  -6   -2.68    6.41
   8  14  -6    6.92    7.72
   8  14  -6    1.10    7.43
   6 -14  -6  154.60   11.31
   6 -14  -6  155.26   15.79
   6  14  -6  195.73   26.58
   6  14  -6  135.22   16.71
   6  14  -6  143.99   14.29
   4 -14  -6   -2.19    3.41
  -4 -14   6    1.84    6.47
   4 -14  -6    1.30    4.28
   4  14  -6    6.16    8.44
   4  14  -6    6.03    5.39
   4  14  -6    9.21    4.26
   2 -14  -6  124.94   14.01
   2 -14  -6  105.21   21.14
  -2 -14   6  115.94   23.78
   2  14  -6  112.96   25.30
   0 -14  -6    1.32    5.54
   0 -14   6    4.13    6.76
   0 -14  -6    2.99    7.09
   0  14  -6   -3.78    3.74
  -2 -14  -6   45.78   15.57
  -2 -14  -6   82.96   19.19
   2 -14   6   75.93   14.59
  -2  14  -6   62.29   14.94
   2  14   6   65.88   17.97
   4 -14   6    9.50    4.75
  -4 -14  -6   -0.49    6.50
   4  14   6    7.77    2.84
  -4  14  -6    5.60    5.75
   4  14   6    7.36    3.23
   4  14   6   28.40   13.05
   6 -14   6   50.38    9.46
   6  14   6   41.84   10.59
   6  14   6   44.38   17.75
   6  14   6   39.61   10.67
   8 -14   6   12.63    4.53
   8  14   6    1.82    7.27
   8  14   6   10.71    7.66
   8  14   6    5.85    7.62
  10 -14   6  134.17   11.31
  10  14   6  129.27   18.62
  10  14   6  106.79   25.08
   9  15  -6   52.70   15.98
   9  15  -6   33.12   18.71
   7  15  -6   10.99   11.35
   7  15  -6   32.06    9.65
   7  15  -6   31.58   11.95
   5 -15  -6   24.08    8.39
   5 -15  -6   13.93    7.89
   5  15  -6   50.79   18.59
   5  15  -6   31.82    9.57
  -3 -15   6   15.83   11.37
   3 -15  -6   41.48   13.67
   3 -15  -6   50.97   12.36
   3  15  -6   23.36   12.52
   1 -15  -6    6.20    8.39
  -1 -15   6   20.66   11.55
   1 -15  -6    4.01    8.25
   1  15  -6   23.65   11.94
   1 -15   6    8.23    7.13
  -1 -15  -6    8.66    9.96
  -1 -15  -6    8.42   11.11
  -1  15  -6    9.93    7.51
   3 -15   6   46.25   11.46
  -3  15  -6   65.33   15.99
   3  15   6   24.34   11.98
   5 -15   6   29.83    8.56
   5  15   6   48.47   15.72
   7 -15   6   31.57    7.68
   7  15   6   18.71    8.57
   7  15   6   32.96   16.49
   9  15   6   48.35   13.30
   9  15   6   42.06   16.51
   8  16  -6   80.53   19.68
   8  16  -6   74.04   27.21
   6  16  -6   -3.43    3.45
   6  16  -6    8.75    9.33
   6  16  -6   -0.31    3.01
   4 -16  -6  119.45   16.37
   4  16  -6  105.44   25.91
   2 -16  -6   -1.66    6.07
   2  16  -6    4.99    6.59
   0 -16   6  109.06   23.13
   0 -16  -6  102.05   23.48
   0  16  -6  103.63   23.62
  -2  16  -6    6.69    8.10
   4 -16   6   86.29   12.42
   4  16   6  105.62   27.34
  -4  16  -6   92.25   18.06
   6 -16   6    4.05    4.67
   6  16   6    0.37    2.13
   6  16   6   -0.16    2.48
   6  16   6   -0.88    6.68
   8  16   6  175.95   42.93
   5 -17  -6   64.95   15.48
   5  17  -6    3.04    9.35
   3  17  -6   31.96   15.20
   1  17  -6   63.85   19.87
  -1  17  -6   31.99   12.63
  -3  17  -6    3.32    6.91
   5  17   6   13.04   12.77
   2  18  -6  109.81   25.94
   0  18  -6    9.70    9.12
  -2  18  -6   51.14   15.98
  18   0  -7   83.30   25.88
  18   0  -7   59.97   17.09
  16   0  -7    2.31    7.75
  16   0  -7   10.41    8.23
  14   0  -7  581.91   36.85
  12   0  -7    1.22    4.86
  10   0  -7  863.38   40.02
   8   0  -7   -0.34    3.33
   6   0  -7  873.85   33.26
   4   0  -7   -0.97    2.39
  -2   0   7 5255.92  178.86
   2   0  -7 4847.64  162.17
   2   0  -7 4490.77  425.16
  -2   0   7 4570.78  414.98
   0   0  -7   31.59   15.58
   0   0   7   42.46   75.29
   0   0  -7  -35.09   70.82
   0   0   7   30.52   14.64
   2   0   7 1523.73   85.10
  -2   0  -7  928.51  230.81
   2   0   7 1650.29  251.43
  -2   0  -7 1552.77   90.88
  -4   0  -7    0.96    2.80
   4   0   7    1.43    3.15
  -4   0  -7    0.57    3.13
  -6   0  -7   26.76    7.58
  -6   0  -7   30.87    8.84
   6   0   7   17.14    6.60
  -8   0  -7   -0.38    3.24
   8   0   7    5.15    5.25
  -8   0  -7    1.20    4.52
  10   0   7  234.84   20.62
 -10   0  -7  231.75   19.20
  12   0   7    6.35    7.17
 -14   0  -7  187.89   19.68
  14   0   7  173.66   20.89
 -16   0  -7    0.21    4.51
  16   0   7   11.69    9.20
 -18   0  -7   -0.49    4.05
  18   0   7    4.32    9.37
  17   1  -7   51.15   20.53
  17   1  -7   62.51   18.64
  15  -1  -7  113.10   23.75
  15   1  -7   42.49   15.84
  15   1  -7   40.92   13.65
  13   1  -7  116.70   16.13
  11  -1  -7   95.74   17.26
  11   1  -7   58.62   14.61
   9   1  -7  108.12   13.49
   7  -1  -7   31.87    8.29
   5   1  -7   68.03    8.85
   5   1  -7   81.41    9.00
  -3  -1   7   86.68    8.35
   3   1  -7   90.45    7.78
   1  -1  -7  130.58    7.70
  -1   1   7  169.03    8.75
  -1  -1  -7   33.86    4.83
   1   1   7   33.50    4.50
  -3  -1  -7  110.23    9.51
  -3  -1  -7   89.75    8.67
   3   1   7   98.67    8.47
   5  -1   7   50.54    9.38
  -5   1  -7   58.70   10.46
  -5   1  -7   43.50    6.26
   7  -1   7   95.09   11.04
  -7   1  -7   98.94   10.30
  -7   1  -7   99.06   11.26
  -9  -1  -7  138.60   14.68
  -9  -1  -7  138.56   15.57
   9   1   7  151.44   16.08
  11  -1   7   72.05   15.92
 -11  -1  -7   29.54    9.48
  11   1   7   27.92   11.08
  13  -1   7   45.15   13.14
  13   1   7  112.04   21.76
 -13   1  -7   41.09   11.31
 -15  -1  -7   12.22    9.20
  15  -1   7   35.61   13.69
  15   1   7   10.82    9.60
 -15   1  -7   32.51   10.62
  17  -1   7   29.78   14.78
 -17  -1  -7   13.59   10.33
  17   1   7   56.70   20.78
  18  -2  -7    2.90    8.14
  18  -2  -7    4.07    6.53
  18   2  -7   -0.74    5.91
  18   2  -7    4.64   10.04
  16  -2  -7  174.88   30.96
  16  -2  -7  167.19   18.28
  16   2  -7  165.10   33.72
  16   2  -7  157.90   23.15
  14  -2  -7    1.36    4.88
  14   2  -7    4.03    6.84
  14   2  -7    2.01    6.72
  12  -2  -7   86.08   11.85
  12   2  -7  110.62   21.55
  10  -2  -7   -1.82    2.87
  10   2  -7    6.59    6.71
   8  -2  -7  649.27   27.97
   8   2  -7  635.02   33.58
   6   2  -7   -0.95    3.02
   6   2  -7   -0.48    3.36
   4  -2  -7  800.39   25.25
   4   2  -7  798.79   28.74
   4   2  -7  783.53   31.22
  -2  -2   7   -0.83    2.37
   2  -2  -7   -0.17    1.77
   2   2  -7   -0.80    2.19
  -2   2   7   -0.80    1.91
   2   2  -7   -0.45    2.01
   0  -2  -7 2460.16  278.06
   0  -2   7 1927.00  286.95
   0  -2  -7 2211.06  102.51
   0  -2   7 2391.10  109.50
   0   2  -7 1978.57  292.07
   0   2   7 2309.79  100.38
   0   2  -7 2315.48  103.22
  -2  -2  -7    0.88    2.43
   2  -2   7    1.41    2.45
  -2  -2  -7    1.08    2.58
   2   2   7   -1.90    2.04
  -2   2  -7   -0.25    2.19
  -4  -2  -7  186.58   14.20
  -4  -2  -7  213.20   14.85
   4  -2   7  185.39   11.62
  -4   2  -7  172.81   11.58
   4   2   7  224.47   14.20
   6  -2   7   -1.63    2.91
  -6  -2  -7    2.37    4.99
  -6  -2  -7   -0.63    3.97
  -6   2  -7    0.78    2.88
   6   2   7    2.90    4.71
  -6   2  -7    1.86    3.65
  -8  -2  -7    9.56    7.45
  -8  -2  -7   10.94    5.80
   8  -2   7    8.03    5.61
   8   2   7   13.54    6.34
   8   2   7    6.80    5.92
  -8   2  -7    8.58    4.79
  10  -2   7   -2.63    4.35
 -10  -2  -7   -2.20    3.80
  10   2   7   -1.14    3.82
  10   2   7    4.47    6.37
 -10   2  -7    0.42    3.76
  12  -2   7  115.04   15.17
 -12  -2  -7  105.15   15.52
 -12   2  -7  125.76   12.74
  12   2   7  117.25   15.12
  12   2   7  123.00   22.22
 -14  -2  -7    2.72    6.21
  14  -2   7    0.33    6.06
  14   2   7    0.36    6.41
  16  -2   7   90.83   20.57
 -16  -2  -7   51.32   15.75
  16   2   7  115.28   26.20
  18  -2   7    3.06   10.34
  18   2   7    6.31    8.56
  17  -3  -7   23.13   12.20
  17   3  -7    5.89   10.60
  17   3  -7   12.62   11.38
  15   3  -7   46.56   15.84
  15   3  -7   40.40   15.40
  13   3  -7    4.76    7.88
  13   3  -7   30.28   11.61
 -11  -3   7   99.68   13.79
  11   3  -7   87.59   18.93
  -9  -3   7  106.30   19.31
   9   3  -7   72.66   17.04
  -7  -3   7  198.61   16.64
   7   3  -7  176.40   15.71
   7   3  -7  208.17   18.54
  -5  -3   7  107.56   11.46
   5   3  -7  132.63   13.71
   5   3  -7  124.11   11.69
  -3  -3   7  154.77   12.10
   3   3  -7  149.97   10.63
   3   3  -7  160.07   13.15
  -1  -3   7   50.04    6.10
   1   3  -7   35.64    4.75
   1   3  -7   48.99    9.15
  -1  -3  -7    5.47    3.51
  -1  -3  -7    7.41    4.54
   1   3   7    3.27    2.75
  -3  -3  -7  448.09   22.98
  -3  -3  -7  486.72   22.10
   3   3   7  507.60   20.69
  -5  -3  -7  175.47   15.07
  -5  -3  -7  193.13   16.29
   5   3   7  138.03   12.65
   5   3   7  172.65   14.54
  -7  -3  -7  188.17   17.55
  -7  -3  -7  179.55   17.26
   7   3   7  179.58   16.11
   7   3   7  204.42   17.18
  -9  -3  -7   43.92   13.87
  -9  -3  -7   44.02   11.96
   9   3   7   34.05   10.47
   9   3   7   53.42   14.27
  11  -3   7    1.74    4.74
 -11  -3  -7   21.20   10.46
  11   3   7    7.40    7.07
  11   3   7   10.24    8.98
  13  -3   7   77.54   16.56
 -13  -3  -7   31.54   13.40
  13   3   7   32.77   12.05
  13   3   7   33.69   11.78
  15  -3   7   16.14   10.43
 -15  -3  -7   43.78   17.16
  15   3   7   31.56   13.72
  17  -3   7   47.44   16.42
  17   3   7    4.15    9.05
  18  -4  -7   56.68   19.16
  18   4  -7   45.07   20.24
  18   4  -7   51.59   20.26
  16  -4  -7   10.18    8.00
  16   4  -7   -3.25    6.45
  16   4  -7   -1.33    6.61
  14   4  -7   77.99   20.95
  14   4  -7   76.29   19.92
  12  -4  -7    0.61    3.66
 -12  -4   7   -2.54    4.24
  12   4  -7   -1.01    4.70
  12   4  -7   -2.88    4.91
  10  -4  -7  304.09   18.60
 -10  -4   7  326.65   24.82
  10   4  -7  278.58   25.92
   8  -4  -7    1.33    2.89
  -8  -4   7    3.88    4.65
   8   4  -7   -2.84    2.64
   8   4  -7   -0.68    3.92
  -6  -4   7  320.86   21.71
   6   4  -7  358.37   21.52
   6   4  -7  319.31   23.39
   4  -4  -7   -0.60    1.88
  -4  -4   7    0.41    3.41
   4   4  -7    4.55    5.36
   4   4  -7    1.21    3.67
  -2  -4   7  622.40   24.80
   2  -4  -7  610.84   17.76
   2   4  -7  620.79   21.95
   2   4  -7  597.54   27.03
   0  -4  -7   -1.36    2.18
   0  -4   7    2.30    2.79
   0  -4  -7    0.45    2.23
   0   4  -7   -2.03    2.08
   0   4   7    0.97    2.11
   0   4  -7    0.03    2.55
  -2  -4  -7 2205.77   57.52
  -4  -4  -7    3.54    4.75
  -4  -4  -7   -0.97    3.45
   4  -4   7    4.23    3.12
   4   4   7    2.09    3.75
  -4   4  -7    2.09    2.65
   4   4   7    1.94    3.97
   6  -4   7  456.30   20.45
  -6  -4  -7  412.78   25.63
  -6  -4  -7  416.92   26.88
   6   4   7  411.74   25.15
   6   4   7  423.80   24.17
  -8  -4  -7   -1.46    4.87
  -8  -4  -7   -0.58    4.89
   8  -4   7    0.23    3.62
   8   4   7   -0.07    3.84
   8   4   7    3.28    5.55
  10  -4   7    6.73    6.68
 -10  -4  -7    4.23    6.21
  10   4   7    8.80    8.32
  10   4   7   14.38    8.18
 -12  -4  -7    1.20    5.96
  12  -4   7   -0.19    4.84
  12   4   7    6.07    6.47
  12   4   7    4.37    7.07
 -14  -4  -7  161.75   38.61
  14  -4   7  192.71   20.29
  14   4   7  173.22   21.73
  14   4   7  193.75   21.29
  16  -4   7    1.47    8.09
  16   4   7    6.20    8.53
  17  -5  -7   10.25   10.10
  17   5  -7   40.69   17.36
  17   5  -7   34.41   16.17
  15   5  -7   18.22   12.91
  15   5  -7   33.35   14.98
  13   5  -7   72.38   18.91
  13   5  -7  120.25   28.55
 -11  -5   7   26.77    9.65
  11   5  -7   18.15    9.48
  11   5  -7   33.16   12.64
  -9  -5   7   94.34   13.79
   9   5  -7  103.35   19.89
   9   5  -7   92.66   13.13
  -7  -5   7   26.49    8.45
   7   5  -7   46.34   13.95
   7   5  -7   57.81   13.16
  -5  -5   7  174.49   15.84
   5   5  -7  168.26   16.97
   5   5  -7  168.01   14.09
  -3  -5   7  150.90   13.53
  -3  -5   7  158.91   13.62
   3   5  -7  152.41   11.38
   3   5  -7  148.17   14.61
   1  -5  -7  158.84    8.98
   1  -5  -7  185.55   13.50
  -1   5   7  209.71    7.01
   1  -5   7   69.52    6.89
  -1   5  -7   71.40    6.06
  -1   5  -7   87.48    9.04
  -3  -5  -7  117.31   11.48
  -3  -5  -7  111.50   12.86
   3   5   7  115.52    9.94
   3   5   7  131.44   13.23
  -5  -5  -7  156.71   15.33
  -5  -5  -7  146.89   15.90
   5   5   7  152.15   15.36
   5   5   7  149.78   13.36
  -7  -5  -7   17.16    8.25
  -7  -5  -7   28.37   10.71
   7   5   7   14.46    6.95
   7   5   7   20.50    8.28
  -9  -5  -7  133.56   24.76
  -9  -5  -7  111.48   20.24
   9   5   7  109.27   15.35
   9   5   7  105.97   14.92
  11  -5   7   60.48   13.13
 -11  -5  -7   23.84   11.04
  11   5   7   23.81   10.68
  11   5   7   27.58   11.62
  13   5   7  115.31   24.33
  13   5   7  115.04   22.86
  15  -5   7   46.50   14.73
  15   5   7   15.88   11.93
  15   5   7    7.23    8.39
  17  -5   7   24.35   11.66
  17   5   7   42.40   19.72
  16  -6  -7   54.16   16.72
  16   6  -7   47.98   19.71
  16   6  -7   60.60   20.78
  14   6  -7    1.72    6.32
  14   6  -7   -2.03    4.83
  12   6  -7   -3.01    5.39
  12   6  -7    1.55    5.56
 -10  -6   7   -1.83    4.30
  10   6  -7    6.90    7.93
  10   6  -7    1.92    4.62
  10   6  -7    7.68    6.45
  -8  -6   7   99.13   14.29
   8   6  -7  122.10   22.89
   8   6  -7  102.49   13.16
  -6  -6   7    3.48    3.97
   6   6  -7   -1.59    3.46
   6   6  -7    7.45    6.16
  -4  -6   7  154.22   15.09
   4  -6  -7  142.99    7.06
   4   6  -7  149.10   16.32
   4   6  -7  154.70   12.53
  -2  -6   7   -1.06    2.66
  -2  -6   7    0.14    3.90
   2  -6  -7   -0.91    1.87
   2  -6  -7    2.84    3.71
   2   6  -7    3.80    4.93
   2   6  -7   -0.59    2.90
   0  -6  -7 2968.50   79.46
   0   6  -7 2935.71   78.34
  -2  -6  -7   -1.25    3.34
   2  -6   7    0.83    2.71
  -2  -6  -7   -0.74    2.97
  -2   6  -7   -0.56    2.05
   2   6   7   -2.25    2.68
  -2   6  -7    0.14    3.09
   2   6   7   -1.45    2.66
   4  -6   7  871.52   26.67
  -4  -6  -7  838.16   36.45
  -4  -6  -7  855.87   40.64
   4   6   7  900.42   39.56
  -4   6  -7  835.81   27.71
   4   6   7  921.16   33.19
   6  -6   7    0.02    2.86
  -6  -6  -7    1.50    4.64
  -6  -6  -7    4.04    5.51
   6   6   7    1.96    4.19
   6   6   7   -1.93    3.56
   8  -6   7   11.90    5.65
  -8  -6  -7   11.87    8.30
  -8  -6  -7    9.71    6.97
   8   6   7    7.28    7.54
   8   6   7    9.06    6.75
  10  -6   7    0.92    4.41
 -10  -6  -7    2.28    4.59
  10   6   7   12.67    8.82
  10   6   7    1.09    6.40
  12  -6   7  123.01   14.67
  12   6   7  114.15   22.17
  12   6   7  118.49   17.24
  14  -6   7    4.86    6.83
  14   6   7   15.44    9.71
  14   6   7    4.11    8.09
  16  -6   7  166.90   22.06
  16   6   7  175.76   36.48
  16   6   7  147.70   28.91
  17  -7  -7   13.94   10.68
  17   7  -7    2.43    8.97
  17   7  -7   -1.13    6.49
  15   7  -7   38.18   16.55
  15   7  -7   53.16   20.18
  13   7  -7   13.81   10.95
  13   7  -7   38.65   15.69
  11   7  -7   62.21   17.65
  11   7  -7   56.64   15.72
  -9  -7   7   36.09   12.21
   9   7  -7   33.06   12.76
   9   7  -7   38.21   12.96
   9   7  -7   21.65   10.80
  -7  -7   7   81.83   17.67
   7   7  -7   71.99   15.02
   7   7  -7   51.49   13.80
   7   7  -7   41.92   12.24
  -5  -7   7   83.87   15.36
   5   7  -7   89.14   16.75
   5   7  -7   74.24    9.92
  -3  -7   7  277.15   20.57
   3   7  -7  296.86   16.09
   3   7  -7  243.98   21.19
  -1  -7   7  142.63   12.01
  -1  -7   7  136.55   12.73
   1   7  -7  124.95   13.86
   1   7  -7  113.11    8.59
   1  -7   7  186.76   11.84
  -1   7  -7  172.23    8.90
  -1   7  -7  177.81   14.69
  -3  -7  -7  207.69   16.67
  -3  -7  -7  211.84   19.49
   3   7   7  253.10   14.53
   3   7   7  229.10   19.31
  -5  -7  -7   51.98   13.47
  -5  -7  -7   67.75   14.61
   5   7   7   71.82   16.67
   5   7   7   51.27   10.72
  -7  -7  -7   84.10   17.75
  -7  -7  -7  103.41   20.18
   7   7   7   84.25   17.00
   7   7   7  101.06   17.70
  -9  -7  -7   22.95    9.48
   9   7   7   22.69   11.23
   9   7   7   27.79   10.96
  11  -7   7   21.37    7.72
  11   7   7   39.12   13.77
  11   7   7   39.78   14.85
  13  -7   7   86.53   16.45
  13   7   7   46.21   14.20
  15  -7   7    4.48    7.54
  15   7   7   20.76   13.35
  15   7   7   19.31   11.38
  16  -8  -7   -0.56    6.74
  16   8  -7    4.40    9.23
  16   8  -7    3.02    8.83
  14   8  -7   66.78   20.70
  14   8  -7   90.47   26.53
  12   8  -7   -0.72    6.44
  12   8  -7    0.55    5.88
  10   8  -7  165.53   23.18
  10   8  -7  167.84   21.33
  10   8  -7  178.06   21.63
  -8  -8   7    2.44    4.61
   8   8  -7    0.78    5.34
   8   8  -7    2.66    7.26
   8   8  -7   -2.53    4.25
  -6  -8   7  171.08   18.74
   6  -8  -7  183.15    8.24
   6  -8  -7  177.23   13.03
   6   8  -7  185.69   18.94
   6   8  -7  194.18   21.62
   6   8  -7  181.15   15.76
   4  -8  -7    2.39    1.99
  -4  -8   7    0.29    4.02
   4  -8  -7    0.30    3.07
   4   8  -7    3.49    4.42
   4   8  -7    1.80    5.48
   4   8  -7    0.07    4.54
  -2  -8   7  295.74   21.32
   2  -8  -7  269.21   19.12
   2  -8  -7  275.45   12.51
  -2  -8   7  285.55   19.31
   2   8  -7  275.00   14.34
   2   8  -7  284.21   22.61
   2   8  -7  297.19   19.07
   0  -8   7    2.97    3.47
   0  -8   7    3.59    3.49
   0  -8  -7    1.69    4.55
   0  -8  -7    1.30    3.04
   0   8  -7   -1.41    3.17
   0   8  -7    3.34    2.42
   0   8  -7    3.86    3.53
  -2  -8  -7  633.26   35.17
  -2  -8  -7  647.47   29.84
   2  -8   7  702.02   24.58
  -2   8  -7  692.88   30.66
   2   8   7  723.72   35.42
   2   8   7  676.28   22.83
  -4  -8  -7    2.97    4.57
   4  -8   7    1.54    2.80
  -4  -8  -7    0.66    4.46
   4   8   7    0.58    3.94
   4   8   7    4.67    5.38
   6  -8   7  220.37   12.66
  -6  -8  -7  229.00   23.22
  -6  -8  -7  229.32   21.48
   6   8   7  229.79   18.36
   6   8   7  235.08   22.85
   8  -8   7    3.56    4.12
  -8  -8  -7    4.60    5.72
  -8  -8  -7    5.63    7.72
   8   8   7    1.39    6.59
   8   8   7    0.06    5.19
  10  -8   7   56.31   10.85
  10   8   7   40.91   13.20
  10   8   7   34.57   11.74
  12  -8   7    2.92    5.50
  12   8   7    3.57    7.45
  12   8   7    1.59    6.47
  14  -8   7  133.22   16.17
  14   8   7  167.88   23.80
  14   8   7  150.23   28.64
  16  -8   7   -4.15    4.89
  16   8   7   12.92   11.19
  16   8   7    0.36    7.34
  15  -9  -7   45.21   14.03
  15   9  -7   22.88   16.46
  15   9  -7    6.59   10.74
  13   9  -7   33.61   15.96
  13   9  -7   19.73   13.36
  11   9  -7   23.46   11.60
  11   9  -7   21.06   11.82
  11   9  -7   27.75   13.27
   9   9  -7  178.91   18.49
   9   9  -7  160.62   20.75
   9   9  -7  152.51   22.15
  -7  -9   7   64.13   17.71
   7   9  -7   61.36   16.01
   7   9  -7   70.18   18.79
   7   9  -7   80.48   14.91
  -5  -9   7  160.10   18.53
   5   9  -7  178.28   21.13
   5   9  -7  202.14   19.10
   5   9  -7  173.54   14.76
  -3  -9   7   55.38   13.19
   3   9  -7   48.78    8.57
   3   9  -7   69.38   18.24
   3   9  -7   50.92   12.08
   1  -9  -7   58.55   12.99
  -1  -9   7  100.02   12.31
  -1  -9   7   82.54   10.41
   1   9  -7   89.61   13.07
   1   9  -7  103.51    8.11
   1   9  -7  105.65   10.35
  -1  -9  -7  109.94   11.50
  -1  -9  -7   96.68   13.50
   1   9   7   98.18    6.55
   1   9   7  105.43    6.01
  -3  -9  -7  119.62   15.76
  -3  -9  -7   88.89   11.89
   3   9   7   95.08    9.13
   3   9   7  103.32   19.31
  -5  -9  -7  192.86   19.41
  -5  -9  -7  192.53   21.22
   5   9   7  217.70   22.09
   5   9   7  215.68   16.76
  -7  -9  -7   74.26   17.33
   7   9   7   54.33   14.17
   7   9   7   68.95   14.09
  -9  -9  -7  122.94   25.72
   9   9   7   87.96   19.82
   9   9   7  110.03   19.30
  11  -9   7   30.61    8.81
  11   9   7   14.34   11.48
  11   9   7   14.81    9.62
  13   9   7   57.72   17.52
  13   9   7   57.47   21.41
  15  -9   7   25.47   10.29
  15   9   7    9.21   11.42
  15   9   7    6.22   10.88
  14  10  -7    6.92    7.52
  14  10  -7    3.74    9.24
  12  10  -7  109.18   25.13
  12  10  -7   74.51   21.63
  10  10  -7   -0.63    6.25
  10  10  -7    0.11    6.82
  10  10  -7    7.66    7.86
   8  10  -7  406.68   36.05
   8  10  -7  421.02   27.38
   8  10  -7  378.79   30.72
  -6 -10   7    0.36    4.78
   6 -10  -7    0.45    1.74
   6 -10  -7   -1.64    2.83
   6  10  -7    4.09    6.74
   6  10  -7   -1.47    4.23
   6  10  -7    1.35    4.18
   4 -10  -7  556.44   17.88
   4 -10  -7  579.89   29.81
  -4 -10   7  571.53   35.06
   4  10  -7  572.23   31.09
   4  10  -7  604.75   39.54
   4  10  -7  555.65   24.96
  -2 -10   7    2.23    5.34
   2 -10  -7    1.62    3.33
   2 -10  -7   -1.61    3.29
   2  10  -7    1.49    5.54
   2  10  -7   -1.00    3.74
   2  10  -7    1.48    3.06
   0 -10   7  740.88   35.35
   0 -10   7  756.32   32.51
   0 -10  -7  768.12   31.72
   0 -10  -7  813.13   40.95
   0  10  -7  810.09   24.14
   0  10  -7  819.14   40.77
   0  10  -7  825.31   21.97
   2 -10   7    3.44    3.61
  -2 -10  -7    6.19    5.66
  -2 -10  -7    4.28    6.18
   2  10   7    0.45    5.01
   2  10   7    1.45    2.83
   2  10   7    2.64    3.16
  -2  10  -7    2.35    4.46
   4 -10   7  273.36   14.70
  -4 -10  -7  269.07   22.67
  -4 -10  -7  269.19   25.51
   4  10   7  271.65   16.97
  -4  10  -7  267.77   18.38
   4  10   7  268.32   25.03
  -6 -10  -7    4.67    5.76
  -6 -10  -7    0.76    6.89
   6 -10   7    2.69    3.49
   6  10   7    1.79    5.36
   6  10   7    3.99    5.36
   8 -10   7  127.31   10.77
  -8 -10  -7  140.67   26.28
   8  10   7  103.52   23.74
   8  10   7  127.89   16.29
  10 -10   7    4.59    4.54
  10  10   7    8.78    7.45
  10  10   7    3.28    6.20
  12 -10   7  137.39   14.69
  12  10   7  169.25   36.65
  12  10   7  143.61   28.41
  14 -10   7   -0.56    5.14
  14  10   7   15.98   11.08
  14  10   7    2.64    9.25
  13  11  -7   12.58   11.28
  13  11  -7    9.12   10.51
  11  11  -7   52.41   21.78
  11  11  -7   45.21   15.92
   9  11  -7   14.48   10.07
   9  11  -7   28.08   15.46
  -7 -11   7   26.15   11.40
   7  11  -7   37.14   11.81
   7  11  -7   21.60   10.19
   7  11  -7   14.41    9.60
   5 -11  -7   41.20   10.42
  -5 -11   7   13.76    9.12
   5  11  -7   22.63    7.34
   5  11  -7   24.65    9.37
   5  11  -7    4.94    8.06
  -3 -11   7   96.86   18.71
   3  11  -7  106.60   23.78
   3  11  -7   85.51    9.14
   3  11  -7   81.97   11.04
  -1 -11   7   44.56   13.06
  -1 -11   7   45.27   11.40
   1  11  -7   35.04   12.27
   1  11  -7   29.89    5.43
   1  11  -7   38.77    7.37
   1 -11   7   42.63   10.65
  -1 -11  -7   13.51    9.95
   1 -11   7   39.83    9.23
  -1 -11  -7   24.57    9.32
  -1  11  -7   49.08   13.08
  -3 -11  -7   40.54   14.90
  -3 -11  -7   46.53   12.61
   3  11   7   54.85   16.51
   3  11   7   48.18    8.86
   3  11   7   47.90    8.09
  -5 -11  -7   70.02   17.44
  -5 -11  -7   46.74   14.52
   5  11   7   45.09   15.14
   5  11   7   41.47   10.23
  -7 -11  -7   14.15   11.63
   7 -11   7    5.53    3.86
   7  11   7    8.00    8.01
   7  11   7    9.81    7.36
   9  11   7   14.66    9.00
   9  11   7   31.41   11.89
  11 -11   7   19.59    6.59
  11  11   7   38.61   14.59
  11  11   7   35.36   17.63
  13 -11   7   51.15   11.88
  13  11   7   22.18   12.55
  13  11   7   15.34   13.30
  12 -12  -7   -0.45    4.65
  12  12  -7    0.31    7.87
  12  12  -7    6.34    8.72
  10  12  -7  213.85   41.34
  10  12  -7  159.60   22.55
   8  12  -7    4.72    6.05
   8  12  -7    7.27    6.91
   8  12  -7    2.87    7.06
   6 -12  -7  176.99   16.23
   6 -12  -7  178.60    8.48
  -6 -12   7  184.74   23.03
   6  12  -7  166.24   15.61
   6  12  -7  192.88   19.42
   6  12  -7  160.42   23.77
   4 -12  -7    2.07    4.86
   4 -12  -7    2.01    3.11
  -4 -12   7    5.17    5.84
   4  12  -7    4.22    7.63
   4  12  -7    4.23    4.83
   2 -12  -7  372.04   20.45
  -2 -12   7  339.95   26.76
   2 -12  -7  349.12   26.37
   2  12  -7  351.16   18.99
   2  12  -7  338.90   15.48
   0 -12   7    3.34    4.81
   0 -12   7    5.76    5.41
   0 -12  -7    1.41    4.74
   0 -12  -7    1.38    5.44
   0  12  -7    3.23    5.96
  -2 -12  -7  150.42   17.04
  -2 -12  -7  144.40   19.28
   2 -12   7  137.21   12.99
   2  12   7  139.88   18.49
  -2  12  -7  138.07   16.28
  -4 -12  -7   -3.18    4.75
   4 -12   7    6.64    4.37
  -4 -12  -7    1.74    7.04
   4  12   7   -0.85    3.51
   4  12   7    4.46    4.29
   4  12   7    5.53    7.15
  -6 -12  -7   15.54   12.05
   6 -12   7   21.49    5.81
  -6 -12  -7   31.52   12.77
   6  12   7   23.15    9.64
   6  12   7   32.70   10.43
   6  12   7   25.54   12.13
   8 -12   7    2.15    3.35
   8  12   7    5.61    7.02
   8  12   7   -0.36    5.16
  10 -12   7   75.05    9.49
  10  12   7   87.06   21.35
  10  12   7   85.75   20.08
  12 -12   7    6.73    4.87
  12  12   7    3.36    8.69
  12  12   7    7.57    7.84
  13  13  -7   41.81   17.78
  13  13  -7   36.54   19.85
  11  13  -7   22.15   12.70
  11  13  -7   22.87   13.25
   9  13  -7   66.82   23.63
   9  13  -7   74.71   19.11
   9  13  -7   65.72   16.74
   7  13  -7    9.89    7.20
   7  13  -7    6.82    9.10
   7  13  -7   27.16   11.34
  -5 -13   7   85.63   20.18
   5  13  -7   80.88   15.73
   5  13  -7   86.33   10.11
   5  13  -7   71.01   19.82
   3 -13  -7   80.71   17.05
  -3 -13   7   31.03   12.62
   3  13  -7   32.46   13.86
   3  13  -7   34.09    8.44
   3  13  -7   38.68    7.43
  -1 -13   7  126.81   16.29
   1  13  -7   89.05   19.46
   1 -13   7   30.93    9.34
  -1 -13  -7   52.61   15.97
   1 -13   7   27.34    9.23
  -1  13  -7   38.25   12.71
  -3 -13  -7   37.06   14.72
  -3 -13  -7   41.42   13.16
   3  13   7   52.02   16.07
  -5 -13  -7   57.18   18.18
   5 -13   7   25.89    6.36
  -5 -13  -7   39.32   19.92
   5  13   7   67.60   20.33
   5  13   7   41.99    9.86
   5  13   7   43.58   10.01
   7 -13   7   60.26    7.53
   7  13   7   10.38    9.05
   7  13   7   37.59   11.48
   7  13   7   33.72   11.01
   9  13   7   59.65   17.92
   9  13   7   44.70   14.16
  11  13   7   12.69   10.92
  11  13   7    8.47   12.07
  10  14  -7   10.54    9.72
  10  14  -7    4.74    9.15
   8  14  -7  186.32   39.69
   8  14  -7  160.63   21.22
   6 -14  -7    5.53    4.32
   6 -14  -7   -2.55    4.10
   6  14  -7    2.57    7.66
   6  14  -7   15.41    5.55
   6  14  -7    7.55    6.63
   4 -14  -7  197.64   19.94
  -4 -14   7  156.60   21.63
   4 -14  -7  176.77   14.83
   4  14  -7  164.21   15.60
   4  14  -7  150.55   12.18
   4  14  -7  159.50   23.65
   2 -14  -7    1.10    5.70
   2 -14  -7    0.66    4.99
  -2 -14   7    5.68    7.66
   2  14  -7    1.94    7.27
   0 -14  -7  227.01   24.99
   0 -14  -7  262.26   22.30
   0 -14   7  236.57   22.01
   0  14  -7  218.04   24.64
  -2 -14  -7    0.64    6.42
  -2 -14  -7   15.96    9.63
   2 -14   7    6.76    5.63
  -2  14  -7    0.64    6.03
   4 -14   7  122.84   12.67
  -4 -14  -7  147.88   21.03
   4  14   7  111.25    8.07
  -4  14  -7  148.41   16.47
   4  14   7  149.63   21.22
   6 -14   7   16.55    5.06
   6  14   7    3.98    4.25
   6  14   7    1.09    4.46
   8 -14   7   41.40    8.52
   8  14   7   46.03   12.79
   8  14   7   39.16   14.63
   8  14   7   26.27   13.21
  10 -14   7   10.03    4.22
  10  14   7    7.96    9.98
  10  14   7    3.65    8.14
   9  15  -7   15.34   11.04
   9  15  -7   34.60   19.52
   7  15  -7   41.31   11.35
   7  15  -7   37.16   16.86
   7  15  -7   20.89    9.96
   5 -15  -7   60.80   15.88
   5  15  -7   18.92    8.88
   5  15  -7   12.67   11.05
   3 -15  -7   11.08    9.26
   3 -15  -7   26.12   10.01
   3  15  -7   41.96   16.55
   1 -15  -7   14.35   11.53
   1 -15  -7   17.00   10.39
  -1 -15   7    9.97    8.05
   1  15  -7    4.63    8.75
  -1 -15  -7   12.47   10.31
  -1 -15  -7    6.08    7.57
  -1  15  -7   42.82   14.28
  -3 -15  -7   55.72   19.88
   3 -15   7   20.84    8.12
  -3  15  -7   19.45    9.21
   5 -15   7   63.69   11.68
   5  15   7   27.78   13.19
   7 -15   7   16.84    5.52
   7  15   7   35.04    9.99
   7  15   7   46.33   19.78
   9 -15   7   15.98    6.10
   9  15   7    3.64    7.80
   9  15   7   11.38    9.82
   8  16  -7    4.54    9.39
   8  16  -7    5.85    7.14
   6 -16  -7   87.14   16.32
   6 -16  -7   62.59   14.41
   6  16  -7   38.85   16.42
   4 -16  -7    2.13    7.22
   4 -16  -7    7.16    7.42
   4  16  -7    3.69    9.12
   2 -16  -7   92.31   23.27
   2 -16  -7   85.53   20.23
   2  16  -7   48.43   17.07
   0 -16  -7   -0.43    6.05
   0 -16   7   -1.57    5.13
   0 -16  -7    3.25    8.43
   0  16  -7    5.02    7.92
  -2  16  -7  124.30   17.60
   4 -16   7    5.48    4.46
  -4  16  -7    4.13    6.09
   6 -16   7   46.03   10.90
   6  16   7   28.13   17.52
   8 -16   7   13.83    5.48
   8  16   7   -1.77    3.74
   8  16   7    0.27    5.51
   8  16   7    6.90   11.40
   5  17  -7   46.98   17.69
   3 -17  -7   34.87   13.43
   3  17  -7    4.88    8.99
   1  17  -7   55.26   19.01
  -1  17  -7   11.81    9.81
  -3  17  -7   32.20   11.72
   5 -17   7   15.26    8.43
   2  18  -7    3.68    8.00
   0  18  -7   85.80   22.34
  -2  18  -7    5.49    7.88
  18   0  -8   -1.82    4.94
  18   0  -8   -2.54    6.31
  16   0  -8  192.08   22.25
  16   0  -8  203.48   25.45
  14   0  -8   -2.06    4.15
  12   0  -8  240.75   22.47
  10   0  -8   -3.79    3.39
   8   0  -8  918.45   38.46
   6   0  -8   -2.29    2.98
   6   0  -8   -0.41    2.87
  -4   0   8 3572.47  175.64
  -4   0   8 3477.18  439.45
   4   0  -8 3824.37  161.32
   4   0  -8 4116.49  476.61
  -2   0   8    0.00    2.42
   2   0  -8   -0.52    2.11
   0   0   8 3077.42  125.34
   0   0  -8 2772.27  119.87
   0   0   8 2967.82  339.61
   0   0  -8 2422.36  332.55
  -2   0  -8    3.43    3.22
   2   0   8    0.24    2.75
  -4   0  -8 4118.44  446.22
   4   0   8 4800.46  512.11
   4   0   8 4249.50  178.91
  -4   0  -8 4371.89  199.56
   6   0   8   -0.12    3.18
  -6   0  -8   -0.83    3.38
  -6   0  -8   -0.97    2.54
  -8   0  -8  673.23   33.15
   8   0   8  711.56   33.45
  -8   0  -8  715.89   32.40
  10   0   8    3.27    5.98
 -10   0  -8   -1.06    3.53
 -12   0  -8  107.07   14.18
  12   0   8   84.37   18.94
 -14   0  -8   -2.15    4.38
  14   0   8    5.30    8.25
  16   0   8  133.26   26.68
 -16   0  -8  117.45   17.49
  18   0   8    0.74    7.98
 -18   0  -8   -0.56    4.16
  17  -1  -8   56.93   18.94
  17  -1  -8   62.24   17.62
  17   1  -8   18.10   13.19
  17   1  -8   27.60   13.09
  15   1  -8  116.43   25.24
  15   1  -8  104.87   22.10
  13   1  -8   47.08   14.24
  11  -1  -8   61.12   13.77
   9  -1  -8  140.96   14.47
   7   1  -8   40.95    9.81
   7   1  -8   42.74   10.30
   5   1  -8   36.46    8.59
   5   1  -8   34.03    7.68
   3  -1  -8  105.49    7.91
  -3   1   8  114.18    8.78
  -1  -1   8  115.50    8.53
   1   1  -8   97.70    7.36
  -1  -1  -8   17.93    4.68
   1   1   8   21.89    5.01
  -3  -1  -8  224.05   13.99
   3   1   8  247.67   13.46
   5  -1   8   68.16    8.50
  -5   1  -8   58.22    8.25
  -5   1  -8   60.61    7.49
  -7  -1  -8   79.46   15.22
  -7  -1  -8   63.09   13.15
   7   1   8   64.18   12.38
  -9  -1  -8   87.68   17.92
  -9  -1  -8   78.29   11.37
   9   1   8   63.76   14.33
 -11  -1  -8   32.01   10.79
  11   1   8   34.43   11.89
  13  -1   8  106.10   21.38
 -13   1  -8   87.72   16.38
  15  -1   8   15.47   10.93
 -15  -1  -8   30.20   12.04
  15   1   8   30.88   12.98
 -15   1  -8    8.56    7.23
  17  -1   8   38.84   15.46
 -17  -1  -8   -2.28    4.25
  17   1   8    5.82    9.47
 -17   1  -8   -0.71    3.36
  18  -2  -8   62.66   20.72
  18  -2  -8   86.70   18.36
  18   2  -8   80.60   22.51
  18   2  -8   71.40   25.17
  16  -2  -8    3.74    8.69
  16  -2  -8   -0.41    4.99
  16   2  -8    0.31    6.99
  16   2  -8   -1.16    6.34
  14  -2  -8  200.05   19.98
  14   2  -8  182.51   21.97
  14   2  -8  177.75   23.38
  12  -2  -8   -1.98    3.26
  12   2  -8    2.26    5.09
  10  -2  -8  910.01   38.40
  10   2  -8  884.72   44.68
   8  -2  -8   -1.36    2.79
   8   2  -8    0.87    4.62
   8   2  -8   -2.57    2.85
   6  -2  -8  486.19   21.81
   6   2  -8  529.11   27.94
   6   2  -8  536.54   25.74
   4  -2  -8    0.02    2.36
   4   2  -8   -1.87    2.61
   4   2  -8    1.92    3.40
   2  -2  -8  370.78   13.92
  -2  -2   8  374.43   17.44
  -2   2   8  352.94   14.26
   2   2  -8  369.67   15.61
   0  -2  -8    1.03    2.17
   0  -2   8    1.18    2.52
   0   2  -8   -0.34    2.12
   0   2   8    2.17    2.57
   2  -2   8 1157.26   32.33
  -2  -2  -8 1168.96   35.46
  -2   2  -8 1175.73   33.18
   2   2   8 1165.09   33.15
  -4  -2  -8   -0.77    2.75
  -4  -2  -8   -1.07    3.07
   4  -2   8   -0.23    2.74
   4   2   8    0.55    3.16
  -4   2  -8   -1.04    2.61
  -6  -2  -8 1994.07   61.22
   6  -2   8 1799.56   53.28
  -6  -2  -8 1852.34   59.66
  -6   2  -8 1822.20   53.83
  -6   2  -8 1862.68   50.53
   6   2   8 1937.81   57.95
  -8  -2  -8    2.45    5.43
  -8  -2  -8   -0.70    3.75
   8  -2   8    4.26    5.15
  -8   2  -8   -1.27    2.71
  -8   2  -8    2.98    4.66
   8   2   8    2.07    4.38
  10  -2   8   96.57   17.03
 -10  -2  -8  107.05   21.08
 -10  -2  -8  120.69   15.19
 -10   2  -8  100.72   11.26
  10   2   8  119.13   21.10
  12  -2   8   -1.32    5.15
 -12  -2  -8   -1.38    4.56
  12   2   8    3.69    6.11
 -12   2  -8    1.20    3.95
 -14  -2  -8   65.76   17.25
  14  -2   8   77.19   19.49
 -14   2  -8   79.22   11.44
  14   2   8  132.92   25.79
  16  -2   8   -1.09    6.75
 -16  -2  -8   -2.02    5.77
  16   2   8   -3.25    5.50
  17  -3  -8    3.70    8.62
  17   3  -8   28.30   14.50
  17   3  -8   28.67   15.18
  15  -3  -8   45.89   12.47
  15   3  -8    5.38    7.58
  15   3  -8   24.00   13.28
  13  -3  -8   34.36   10.13
  13   3  -8   66.83   18.10
  11  -3  -8   93.64   11.60
   9   3  -8  253.48   20.90
   9   3  -8  301.90   25.02
   7   3  -8   83.55   16.32
   7   3  -8   74.50   10.20
   5   3  -8  232.00   15.78
   5   3  -8  212.54   17.47
  -3  -3   8   56.99    8.06
   3   3  -8   55.42   10.46
   3   3  -8   49.66    6.70
  -1  -3   8   62.18    7.13
   1   3  -8   56.03    5.95
   1   3  -8   54.14    7.37
  -1  -3  -8   40.67    7.21
   1   3   8   38.60    4.87
  -3  -3  -8  181.33   14.28
  -3  -3  -8  170.13   12.98
   3   3   8  185.59   12.15
  -5  -3  -8  383.39   23.62
  -5  -3  -8  361.14   22.11
   5   3   8  402.53   21.55
  -7  -3  -8  107.56   19.19
  -7  -3  -8   75.01   14.33
   7   3   8   82.34   11.26
   7   3   8   90.63   16.02
  -9  -3  -8  181.26   19.37
  -9  -3  -8  182.32   19.05
   9   3   8  161.97   16.70
   9   3   8  210.47   19.70
  11  -3   8   19.68    8.85
 -11  -3  -8   -1.42    5.09
  11   3   8    2.57    7.03
  11   3   8    5.58    6.07
  13  -3   8   33.66   11.89
 -13  -3  -8   42.02   14.57
  13   3   8   78.68   19.72
  15  -3   8   32.23   12.13
  15   3   8    3.94    8.41
  17  -3   8   15.45   10.69
  17   3   8   20.80   14.36
  16  -4  -8   77.00   19.64
  16   4  -8   68.21   20.09
  16   4  -8   90.85   25.51
  14  -4  -8    0.27    3.87
  14   4  -8    4.58    6.70
  14   4  -8   11.50    9.13
  12  -4  -8  277.69   19.70
  12   4  -8  298.41   26.01
  12   4  -8  228.08   25.56
  10  -4  -8   -0.20    3.11
 -10  -4   8   -1.54    4.76
  10   4  -8    6.07    6.90
  10   4  -8    0.88    5.44
  -8  -4   8  574.37   32.19
   8  -4  -8  617.42   25.48
   8   4  -8  630.09   36.63
   8   4  -8  580.52   31.39
   6  -4  -8    0.24    2.76
  -6  -4   8    0.91    3.81
   6   4  -8    1.20    4.00
   6   4  -8    2.29    4.42
   4  -4  -8 1080.38   29.61
   4   4  -8 1154.98   43.93
   4   4  -8 1064.72   36.23
  -2  -4   8   -0.83    3.05
   2  -4  -8    2.73    2.36
   2   4  -8   -0.62    2.59
   2   4  -8   -3.01    2.08
  -2   4   8   -0.16    1.58
   0  -4   8  846.73   27.32
   0  -4  -8  850.80   26.15
   0   4   8  787.35   23.13
   0   4  -8  831.31   30.27
   0   4  -8  841.61   25.75
   2  -4   8   -1.97    2.30
  -2  -4  -8   -1.10    2.84
  -2  -4  -8    1.99    3.78
  -2   4  -8   -0.67    2.40
   2   4   8    1.93    3.13
  -4  -4  -8 1695.80   57.22
  -4  -4  -8 1630.34   53.30
   4   4   8 1923.94   51.89
  -4   4  -8 1685.59   45.02
  -6  -4  -8    3.88    4.60
   6  -4   8    4.01    3.75
  -6  -4  -8   -0.47    4.41
   6   4   8   -0.14    3.91
  -6   4  -8    1.57    3.34
   6   4   8    0.96    4.12
  -8  -4  -8  318.72   25.29
  -8  -4  -8  306.57   24.90
   8  -4   8  323.65   19.76
   8   4   8  307.81   23.28
   8   4   8  331.84   23.74
 -10  -4  -8    0.77    5.58
 -10  -4  -8    1.32    6.74
  10  -4   8    2.07    4.77
  10   4   8    3.03    4.81
  10   4   8    3.74    5.93
 -12  -4  -8  218.85   24.24
  12  -4   8  249.43   21.29
  12   4   8  227.98   23.45
  12   4   8  248.44   24.68
  14  -4   8   -0.41    5.70
  14   4   8   -4.49    4.77
  16  -4   8  158.58   20.64
  16   4   8  155.92   29.87
  17  -5  -8   28.14   13.65
  17   5  -8   33.64   16.57
  15   5  -8   69.63   20.84
  15   5  -8   70.71   22.26
  13   5  -8   34.84   14.32
  13   5  -8   27.97   13.64
 -11  -5   8  118.50   16.28
  11   5  -8  132.87   27.29
  -9  -5   8   68.74   16.27
   9   5  -8   69.28   16.99
   9   5  -8   75.95   15.20
  -7  -5   8   57.04   12.96
   7   5  -8   54.45   11.80
   7   5  -8   57.74   15.98
  -5  -5   8   30.32   10.14
   5   5  -8   49.44   10.55
   5   5  -8   40.23   11.50
  -3  -5   8  342.45   20.47
  -3  -5   8  380.47   22.07
   3   5  -8  371.54   17.96
   3   5  -8  369.32   23.64
   1  -5  -8  539.73   18.45
   1  -5  -8  472.11   23.04
  -1   5   8  520.24   15.12
   1  -5   8  198.64   11.76
  -1   5  -8  197.01   13.69
  -1   5  -8  189.82   10.45
   3  -5   8  119.30    8.81
  -3   5  -8  139.92   10.12
  -3   5  -8  123.53    8.40
  -5  -5  -8   58.69   13.77
  -5  -5  -8   77.46   14.05
   5   5   8   72.80   12.73
   5   5   8   81.84   15.70
  -7  -5  -8  119.84   15.31
  -7  -5  -8  108.47   14.75
   7   5   8  103.79   13.04
   7   5   8  114.28   14.51
  -9  -5  -8  132.81   17.29
  -9  -5  -8  131.93   17.49
   9   5   8  126.59   16.40
   9   5   8  100.02   18.60
 -11  -5  -8   83.72   19.12
  11   5   8  100.77   20.65
  11   5   8   75.43   16.99
  13  -5   8   86.49   16.98
  13   5   8   43.57   13.85
  13   5   8   27.65   11.82
  15  -5   8   23.96   11.34
  15   5   8   29.22   12.90
  17  -5   8   22.17   11.85
  17   5   8    5.16    8.68
  16  -6  -8   -2.28    5.04
  16   6  -8    1.67    8.76
  16   6  -8   -1.04    4.65
  14   6  -8  220.53   27.17
  14   6  -8  169.77   24.57
  12   6  -8    1.20    5.27
  12   6  -8   -0.38    6.49
 -10  -6   8  511.91   35.14
  10   6  -8  585.54   40.78
  10   6  -8  529.29   36.89
  10   6  -8  558.12   38.00
  -8  -6   8    4.17    6.03
   8   6  -8   -3.69    3.43
   8   6  -8   -1.46    4.03
  -6  -6   8   49.32   13.26
   6  -6  -8   42.49    5.09
   6   6  -8   55.46   12.03
   6   6  -8   60.76   16.06
   4  -6  -8   -1.18    1.80
  -4  -6   8   -0.10    3.23
   4   6  -8   -1.90    3.12
   4   6  -8    0.53    3.65
  -2  -6   8  761.96   33.07
  -2  -6   8  844.26   32.77
   2  -6  -8  768.71   31.19
   2  -6  -8  785.42   23.00
   2   6  -8  781.48   26.68
   2   6  -8  836.52   36.92
   0  -6  -8    2.25    3.22
   0  -6  -8   -0.46    3.44
   0  -6   8    0.31    3.21
   0   6  -8    5.34    4.63
   0   6   8    2.95    2.39
   0   6  -8    2.42    2.83
   2  -6   8 1188.38   34.14
  -2  -6  -8 1123.68   45.22
  -2  -6  -8 1122.05   39.14
   2   6   8 1194.85   34.01
  -2   6  -8 1153.58   31.11
  -2   6  -8 1212.43   39.04
  -4  -6  -8    2.75    4.81
  -4  -6  -8    2.67    4.55
   4  -6   8   -0.74    2.66
   4   6   8    2.21    4.47
  -4   6  -8    1.85    3.03
   4   6   8    0.37    3.80
  -4   6  -8   -0.67    1.66
   6  -6   8  335.78   16.67
  -6  -6  -8  300.80   23.46
  -6  -6  -8  295.43   24.79
   6   6   8  315.60   24.33
   6   6   8  318.40   21.31
   8  -6   8    1.34    3.67
  -8  -6  -8    2.38    6.47
  -8  -6  -8    2.04    5.96
   8   6   8    2.73    6.00
   8   6   8    4.81    6.12
  10  -6   8  357.24   22.05
 -10  -6  -8  293.24   27.53
 -10  -6  -8  293.69   28.60
  10   6   8  300.04   25.50
  10   6   8  291.84   26.96
  12  -6   8   -2.49    4.50
  12   6   8    3.23    7.52
  12   6   8   -3.00    4.54
  14  -6   8  193.54   20.49
  14   6   8  187.32   23.70
  14   6   8  229.75   25.18
  16  -6   8    3.56    6.58
  16   6   8   -1.70    7.21
  17  -7  -8    4.24    8.78
  17   7  -8   27.75   16.51
  17   7  -8    9.96   11.63
  15   7  -8   13.16   11.75
  15   7  -8   12.56   11.89
  13   7  -8  105.53   27.23
  13   7  -8   52.96   17.36
  11   7  -8   44.04   17.33
  11   7  -8   34.00   14.03
  -9  -7   8  106.51   15.69
   9   7  -8  105.20   14.24
   9   7  -8   96.82   20.11
   9   7  -8  106.76   21.81
  -7  -7   8   12.20    7.17
   7   7  -8   19.52   10.19
   7   7  -8   23.52    8.05
   5  -7  -8   57.97    4.92
   5  -7  -8   62.55    7.99
  -3  -7   8   87.88   11.25
  -3  -7   8   96.56   12.06
   3   7  -8   77.36    8.50
   3   7  -8   76.85   15.15
  -1  -7   8  275.80   17.38
   1   7  -8  270.50   20.46
   1   7  -8  302.54   14.23
  -1  -7  -8  189.81   17.36
  -1  -7  -8  213.14   14.47
   1   7   8  222.50   10.79
  -3  -7  -8   70.76   10.35
  -3  -7  -8   87.40   13.02
   3   7   8   91.67    8.97
   3   7   8  101.59   13.44
  -5  -7  -8  139.66   15.82
  -5  -7  -8  127.29   16.09
   5   7   8  140.88   16.52
   5   7   8  141.03   13.39
  -7  -7  -8   75.25   17.72
  -7  -7  -8   58.04   16.35
   7   7   8   52.86   13.41
   7   7   8   40.29   11.60
  -9  -7  -8  157.51   21.07
   9   7   8  142.38   19.20
   9   7   8  177.23   19.17
  11   7   8   33.31   13.52
  11   7   8   23.92    9.72
  13   7   8   52.97   15.68
  13   7   8   99.42   22.73
  15  -7   8    7.82    8.60
  15   7   8   -1.84    6.87
  15   7   8    5.96    8.97
  16  -8  -8   48.23   15.49
  16   8  -8   43.03   18.44
  16   8  -8   64.67   23.36
  14   8  -8   -3.41    4.82
  14   8  -8    7.56    8.51
  12   8  -8  192.66   34.61
  12   8  -8  106.21   23.29
  10   8  -8    0.97    6.35
  10   8  -8    8.53    9.30
   8   8  -8  236.07   25.38
   8   8  -8  236.20   24.07
   8   8  -8  221.62   19.26
   6  -8  -8    0.84    2.10
  -6  -8   8    5.00    5.99
   6  -8  -8   -0.76    2.63
   6   8  -8    1.21    5.12
   6   8  -8   -1.56    3.62
   6   8  -8    5.92    5.99
  -4  -8   8  345.86   25.01
   4  -8  -8  307.00   19.56
   4  -8  -8  353.64   12.37
   4   8  -8  380.98   19.98
   4   8  -8  323.70   26.60
  -2  -8   8    0.77    3.85
  -2  -8   8   -1.09    2.68
   2  -8  -8    3.04    2.52
   2  -8  -8   -1.31    2.48
   2   8  -8    0.78    4.63
   2   8  -8    1.58    3.01
   0  -8  -8  293.56   21.99
   0  -8   8  376.48   19.73
   0  -8  -8  313.13   17.19
   0   8  -8  344.98   14.51
   0   8  -8  336.71   23.03
   2  -8   8    0.90    3.33
  -2  -8  -8   -2.03    3.61
  -2  -8  -8   -4.85    2.07
  -2   8  -8   -1.73    2.68
  -2   8  -8    0.85    1.85
   2   8   8    2.73    3.28
  -4  -8  -8  937.65   47.12
  -4  -8  -8  912.71   41.42
   4  -8   8 1000.35   31.14
   4   8   8  987.99   35.30
  -4   8  -8 1024.17   35.76
   4   8   8  992.96   45.83
  -6  -8  -8   -0.11    3.74
   6  -8   8    1.52    3.58
  -6  -8  -8    1.74    5.13
   6   8   8   -2.03    4.08
   6   8   8    5.69    5.76
  -8  -8  -8  331.92   28.37
   8  -8   8  330.49   18.27
  -8  -8  -8  341.69   30.50
   8   8   8  297.13   27.23
   8   8   8  319.80   24.23
  10  -8   8   -0.31    4.24
  10   8   8   -2.14    4.49
  10   8   8    5.36    7.70
  12  -8   8  142.41   14.73
  12   8   8  118.58   27.73
  12   8   8  124.29   17.84
  14  -8   8    3.35    6.10
  14   8   8    0.93    8.00
  14   8   8   13.44    9.30
  16  -8   8  100.67   20.12
  16   8   8   92.24   25.93
  16   8   8   52.64   21.72
  15   9  -8   29.50   16.33
  15   9  -8   19.30   14.24
  13   9  -8   11.05   10.68
  13   9  -8    2.84    7.86
  11   9  -8   87.81   21.46
  11   9  -8   63.57   18.79
   9   9  -8   89.82   21.20
   9   9  -8   79.81   22.21
   9   9  -8   82.17   15.93
  -7  -9   8  113.99   16.15
   7   9  -8  133.58   19.80
   7   9  -8  108.40   13.24
  -5  -9   8   70.12   15.15
   5   9  -8   82.30   10.32
   5   9  -8   56.50   15.30
   5   9  -8   90.81   17.89
  -3  -9   8  101.42   13.62
   3   9  -8  104.89   12.99
   3   9  -8  132.35   25.05
   3   9  -8  103.28    9.83
  -1  -9   8   69.94   13.18
  -1  -9   8   64.43   13.24
   1   9  -8   53.36   13.23
   1   9  -8   63.57    8.67
   1   9  -8   52.78    6.28
  -1  -9  -8   46.14   12.88
  -1  -9  -8   47.55   10.51
   1   9   8   25.47    3.67
   1   9   8   38.41    6.09
  -3  -9  -8  261.56   23.69
  -3  -9  -8  254.30   20.10
   3   9   8  235.01   21.76
   3   9   8  258.18   14.75
  -5  -9  -8   97.64   18.58
  -5  -9  -8   99.27   19.18
   5   9   8   83.67   19.38
   5   9   8   74.55   10.51
  -7  -9  -8  185.89   20.66
   7   9   8  154.71   16.44
   7   9   8  150.95   20.05
  -9  -9  -8   62.46   18.14
   9   9   8   42.93   15.77
   9   9   8   51.54   13.27
  11  -9   8    8.82    6.24
  11   9   8   24.63   13.05
  11   9   8   56.96   15.42
  13  -9   8   37.36   10.75
  13   9   8   12.94   12.03
  13   9   8   16.35   11.41
  15  -9   8    4.89    7.45
  15   9   8   18.85   12.96
  15   9   8   14.05   11.94
  14  10  -8   89.76   29.26
  14  10  -8   78.10   22.94
  12  10  -8    5.64    7.58
  12  10  -8   -0.07    6.46
  10  10  -8  251.80   25.36
  10  10  -8  247.74   27.13
  10  10  -8  285.35   32.64
   8 -10  -8    1.00    2.58
   8  10  -8   14.80    8.25
   8  10  -8    9.48    8.88
   8  10  -8    6.36    7.81
   6 -10  -8  313.76   20.84
   6 -10  -8  308.03   11.03
  -6 -10   8  313.49   27.46
   6  10  -8  296.16   25.10
   6  10  -8  322.78   21.53
   6  10  -8  280.70   29.14
   4 -10  -8    3.93    4.88
   4 -10  -8    3.44    2.61
  -4 -10   8    2.64    5.15
   4  10  -8    0.61    6.11
   4  10  -8    5.70    5.21
   4  10  -8    3.19    4.00
  -2 -10   8  410.41   27.18
   2 -10  -8  403.94   18.69
   2 -10  -8  398.73   26.71
  -2 -10   8  407.83   26.02
   2  10  -8  422.14   18.53
   2  10  -8  390.12   29.69
   2  10  -8  384.80   22.63
   0 -10   8    1.30    4.33
   0 -10  -8    5.59    4.48
   0 -10  -8    4.64    4.46
   0 -10   8    0.69    4.05
   0  10  -8    0.42    4.71
   0  10  -8    6.82    2.98
   0  10  -8   -0.09    3.36
  -2 -10  -8  622.98   31.83
  -2 -10  -8  592.86   37.33
   2 -10   8  669.19   27.29
   2  10   8  635.46   21.02
   2  10   8  631.15   23.89
  -2  10  -8  681.66   34.51
  -4 -10  -8   -2.39    4.86
  -4 -10  -8    5.03    7.23
   4 -10   8    3.87    3.55
  -4  10  -8    0.28    3.78
   4  10   8   -3.27    2.94
   4  10   8    1.71    4.41
  -6 -10  -8  608.13   38.85
  -6 -10  -8  633.80   43.22
   6 -10   8  642.43   24.84
   6  10   8  674.10   42.80
   6  10   8  659.57   32.55
  -8 -10  -8   16.09   12.03
   8  10   8    9.56    7.08
  10 -10   8  101.50   10.64
  10  10   8   91.13   18.59
  10  10   8   94.66   20.93
  12 -10   8    3.14    5.17
  12  10   8   14.07   10.24
  12  10   8   -2.46    4.30
  14 -10   8   54.14   13.70
  14  10   8   25.82   15.14
  14  10   8   46.94   17.64
  13 -11  -8   12.35    8.44
  13  11  -8   26.60   13.63
  13  11  -8   13.96   13.51
  11  11  -8   38.70   17.73
  11  11  -8   24.62   12.42
   9  11  -8   59.58   20.80
   9  11  -8   62.00   16.92
  -7 -11   8    5.14    8.68
   7 -11  -8   48.10   10.59
   7  11  -8   16.47   10.06
   7  11  -8   14.54    7.07
   7  11  -8    5.30    7.82
  -5 -11   8   70.05   17.48
   5  11  -8   62.12   15.26
   5  11  -8   38.90   13.57
   5  11  -8   67.28    9.26
  -3 -11   8   60.40   16.54
   3  11  -8   48.40   11.44
   3  11  -8   31.58    7.46
   3  11  -8   42.13   13.59
   1 -11  -8   36.34    8.27
  -1 -11   8   72.48   14.85
  -1 -11   8   70.74   14.17
   1 -11  -8   39.08   11.38
   1  11  -8   66.35    7.97
   1  11  -8   62.02   16.48
   1  11  -8   54.36    6.18
  -1 -11  -8   58.85   15.23
   1 -11   8   27.20    7.94
  -1  11  -8   39.49   12.26
  -3 -11  -8   43.07   12.89
   3 -11   8   62.67    8.65
  -3 -11  -8   48.62   13.76
   3  11   8   36.14   12.98
   3  11   8   28.22    6.56
   3  11   8   48.30    6.71
  -5 -11  -8   72.14   18.28
  -5 -11  -8   40.24   15.72
   5  11   8   49.69   10.97
   5  11   8   44.88   15.74
  -7 -11  -8   16.53   12.70
   7 -11   8   18.13    6.35
   7  11   8    2.84    7.40
   7  11   8    3.47    5.97
   9 -11   8   34.10    7.66
   9  11   8   77.75   21.99
   9  11   8   57.42   13.97
  11 -11   8   22.52    7.37
  11  11   8    2.56    7.49
  11  11   8   10.68    7.86
  13  11   8   44.08   18.93
  13  11   8   37.66   14.59
  12 -12  -8   84.32   10.95
  12  12  -8  115.07   33.44
  12  12  -8  107.41   26.64
  10 -12  -8    1.97    3.05
  10  12  -8   12.94   10.08
  10  12  -8    3.56    7.54
   8  12  -8  127.76   16.14
   8  12  -8  133.21   18.60
   8  12  -8  135.59   26.42
  -6 -12   8    4.93    6.70
   6 -12  -8   -0.44    4.22
   6  12  -8    2.26    4.93
   6  12  -8    1.92    6.27
   6  12  -8   -3.19    4.12
   4 -12  -8  356.87   25.67
  -4 -12   8  351.59   29.41
   4 -12  -8  328.62   16.66
   4  12  -8  337.82   19.36
   4  12  -8  352.84   24.48
   4  12  -8  341.91   32.48
   2 -12  -8    2.46    4.46
  -2 -12   8    0.81    5.02
   2 -12  -8    5.44    6.57
   2  12  -8   13.52    4.06
   2  12  -8    4.04    4.34
   2  12  -8    0.17    4.87
   0 -12  -8  303.92   26.68
   0 -12   8  276.39   23.65
   0 -12  -8  272.55   20.33
   0 -12   8  267.44   21.00
   0  12  -8  288.94   26.48
   2 -12   8    6.90    4.79
  -2 -12  -8   -0.97    4.45
  -2 -12  -8    8.33    7.44
  -2  12  -8    0.69    5.18
  -4 -12  -8  377.77   29.27
   4 -12   8  341.95   19.23
  -4 -12  -8  364.93   34.14
   4  12   8  378.52   21.45
  -4  12  -8  385.48   24.47
   4  12   8  352.01   18.55
   4  12   8  346.11   30.34
   6 -12   8    6.13    3.81
  -6 -12  -8    2.58    6.64
  -6 -12  -8   -1.83    7.47
   6  12   8   -0.69    6.29
   6  12   8   -0.04    5.05
   8 -12   8  146.00   11.91
   8  12   8  135.25   16.63
   8  12   8  166.03   34.84
  10 -12   8    2.44    4.22
  10  12   8    6.74    7.77
  10  12   8    2.26    9.95
  12 -12   8   44.63   10.59
  12  12   8   22.04   11.78
  12  12   8   23.43   10.63
  11  13  -8   65.91   20.26
  11  13  -8   62.01   26.30
   9  13  -8   34.55   12.05
   9  13  -8   32.55   16.65
   9  13  -8   31.94   14.17
   7  13  -8   41.20   11.45
   7  13  -8   44.49   13.36
   7  13  -8   42.71   14.95
   5 -13  -8   91.34   17.87
  -5 -13   8   37.46   14.57
   5  13  -8   29.28   14.20
   5  13  -8   41.97    9.32
   5  13  -8   46.37   13.03
   3 -13  -8   37.02   11.88
  -3 -13   8   77.90   17.72
   3 -13  -8   59.36    8.31
   3  13  -8   75.06   10.39
   3  13  -8   76.90    8.28
   3  13  -8   88.41   21.65
  -1 -13   8   66.11   16.21
   1 -13  -8  128.15   14.00
   1 -13  -8  121.80   17.76
   1  13  -8   67.24   16.79
  -1 -13  -8   31.71   12.83
   1 -13   8   73.40   13.94
  -1 -13  -8   46.47   12.58
  -3 -13  -8   99.06   21.60
  -3 -13  -8   76.80   22.47
   3  13   8   66.96    4.87
  -5 -13  -8   33.39   13.29
   5 -13   8   61.12   10.54
   5  13   8   18.93    9.56
   5  13   8   35.56    9.26
   7  13   8   60.96   13.60
   7  13   8   57.00   14.51
   7  13   8   60.26   19.64
   9  13   8   16.14   11.21
   9  13   8   18.22    8.48
  11 -13   8   17.61    6.30
  11  13   8   30.65   18.20
  11  13   8   26.56   12.37
  10  14  -8  239.51   35.14
  10  14  -8  187.48   24.18
   8  14  -8    8.27    7.91
   8  14  -8   10.76    7.72
   6 -14  -8  187.81   19.70
   6 -14  -8  210.28   13.23
   6  14  -8  204.80   29.32
   6  14  -8  176.75   19.32
   6  14  -8  174.42   16.11
   4 -14  -8   -3.01    4.14
  -4 -14   8    1.85    7.54
   4 -14  -8    0.74    4.36
   4  14  -8    8.51    4.43
   4  14  -8    3.94    7.64
   4  14  -8    2.46    4.69
   2 -14  -8  233.65   25.07
  -2 -14   8  236.82   24.03
   2 -14  -8  250.62   20.54
   2  14  -8  214.28   26.06
   0 -14  -8    2.03    6.15
   0 -14  -8    3.45    8.35
   0  14  -8    1.94    7.97
  -2 -14  -8  236.11   24.06
   2 -14   8  206.28   18.34
  -2 -14  -8  209.32   25.91
  -2  14  -8  215.19   22.40
   4 -14   8   12.67    4.82
  -4 -14  -8    5.55    7.92
   4  14   8   12.17    3.69
  -4  14  -8    3.17    5.35
   4  14   8   16.45    9.23
   6  14   8  179.64   34.68
   6  14   8  169.73   17.20
   6  14   8  169.73   15.53
   8 -14   8   11.18    4.78
   8  14   8    9.61    8.78
   8  14   8    6.65    7.05
   8  14   8   -3.58    4.45
  10 -14   8   48.67    9.71
  10  14   8   40.54   15.20
  10  14   8   61.08   19.13
   9  15  -8   41.73   18.08
   9  15  -8   45.18   15.31
   7 -15  -8   43.80    9.03
   7  15  -8   22.54   14.76
   7  15  -8   25.35    9.95
   7  15  -8   20.47   10.39
   5 -15  -8   21.86   10.38
   5 -15  -8   29.71   10.27
   5  15  -8   74.00   14.60
   5  15  -8   47.53   15.83
   3 -15  -8   23.50   11.47
   3 -15  -8   30.92   11.19
   3  15  -8    4.43    8.81
   1 -15  -8    5.96    8.98
  -1 -15   8   11.06    8.26
   1 -15  -8    6.48    9.03
   1  15  -8   12.89    9.92
  -1 -15  -8   17.61   11.82
  -1 -15  -8   29.17   13.49
  -1  15  -8   13.38   10.20
  -3 -15  -8   20.73   13.59
   3 -15   8   55.92   12.94
  -3  15  -8   62.62   15.87
   5 -15   8   32.99    8.41
   5  15   8   71.34   22.20
   7 -15   8   39.55    9.72
   7  15   8   28.34   16.03
   7  15   8   22.60    7.85
   9 -15   8   16.08    6.13
   9  15   8   19.14    9.90
   9  15   8   31.43   14.37
   8  16  -8   81.54   23.86
   8  16  -8   78.90   17.97
   6 -16  -8    7.21    7.72
   6 -16  -8    2.87    6.38
   6  16  -8   -2.01    4.41
   6  16  -8    0.06    3.22
   6  16  -8    1.31    8.35
   4 -16  -8  139.11   28.05
   4 -16  -8  121.70   17.16
   4  16  -8  141.13   31.59
   2 -16  -8    7.28    9.19
   2 -16  -8   -1.82    7.17
   2  16  -8   -3.04    4.96
   0 -16  -8  139.88   20.12
   0  16  -8  134.88   28.06
  -2 -16  -8    4.20    8.63
  -2  16  -8   10.84    6.87
   4 -16   8  131.95   15.24
  -4  16  -8  120.74   16.28
   6 -16   8   11.16    5.39
   6  16   8   -0.22    2.60
   6  16   8    0.53    2.26
   8 -16   8   47.83   10.46
   8  16   8   37.73   20.49
   5 -17  -8    5.24    8.09
   5  17  -8    6.83   10.96
   3 -17  -8   10.68   12.72
   3 -17  -8   20.97   12.10
   3  17  -8   36.23   16.38
   1 -17  -8   34.19   15.76
   1  17  -8   24.70   11.20
  -1  17  -8   19.00   10.05
  -3  17  -8    9.59    7.28
   5 -17   8   21.13    9.42
   2  18  -8   68.29   23.13
   0  18  -8   -0.52    6.98
  18   0  -9   23.17   11.91
  18   0  -9    5.60   11.25
  16   0  -9    4.12    7.66
  16   0  -9    5.51    7.94
  14   0  -9   96.86   19.93
  12   0  -9   -1.60    4.25
  10   0  -9  735.53   37.13
   8   0  -9    0.04    3.67
   8   0  -9    0.97    4.19
   6   0  -9 1524.28   49.13
   6   0  -9 1470.64   46.55
   4   0  -9   -2.55    2.78
   2   0  -9  953.03   28.18
  -2   0   9  983.20   30.34
   0   0   9    1.06    2.72
   0   0  -9   -1.12    2.39
  -2   0  -9 2307.53  122.56
   2   0   9 1639.48  283.94
   2   0   9 2130.54  110.75
  -2   0  -9 1313.61  323.94
  -4   0  -9   -0.50    3.56
   4   0   9    2.28    3.67
  -6   0  -9   20.52    6.45
   6   0   9   19.59    7.15
  -6   0  -9   13.36    6.36
  -8   0  -9   -2.86    4.04
  -8   0  -9    1.88    3.77
   8   0   9   -0.50    3.99
  10   0   9  132.88   15.88
 -10   0  -9  117.83   13.99
 -10   0  -9  132.67   15.44
  12   0   9    0.84    5.68
 -12   0  -9    0.46    3.56
  14   0   9   78.41   19.23
 -14   0  -9   65.97   16.31
 -16   0  -9    0.28    5.08
  16   0   9    2.63    7.45
  17  -1  -9    9.42    7.86
  17  -1  -9    6.52   10.13
  17   1  -9    9.78   12.26
  17   1  -9    7.14    8.63
  15  -1  -9   55.25   16.30
  15   1  -9   22.91   10.48
  13   1  -9   61.25   16.01
  11  -1  -9  135.04   15.48
  11   1  -9   78.93   17.14
   9   1  -9  232.08   19.12
   9   1  -9  256.77   21.41
   7  -1  -9   69.19    9.10
   7  -1  -9   76.75    9.83
   7   1  -9   51.23   11.65
   7   1  -9   41.34   10.03
   5   1  -9  126.75   12.45
   5   1  -9  112.75   10.58
  -3  -1   9   98.66    9.49
   3   1  -9   94.53    8.40
   1  -1  -9  119.48    8.22
  -1   1   9  127.51    8.63
   1  -1   9   14.33    4.37
  -1   1  -9   21.39    5.34
   3  -1   9  183.21   11.45
  -3   1  -9  163.69   11.80
  -5  -1  -9    1.99    3.99
   5  -1   9    1.82    3.37
  -5  -1  -9    2.81    4.22
   5   1   9    1.76    3.63
  -5   1  -9   -1.42    3.24
  -7  -1  -9   11.62    6.92
   7  -1   9   38.54    9.55
  -7  -1  -9   15.26    6.89
  -7   1  -9   44.91    9.98
   7   1   9   19.59    7.81
  -7   1  -9   45.06   11.02
   9  -1   9   75.51   14.64
  -9   1  -9   71.04   14.29
  -9   1  -9   72.28   10.10
  11  -1   9   45.11   12.60
 -11  -1  -9   25.97    9.87
  11   1   9    6.36    7.04
 -11   1  -9   55.85   13.53
 -13  -1  -9   78.61   17.57
  13  -1   9   41.60   13.25
  13   1   9   78.38   18.06
 -13   1  -9   28.38    9.70
  15  -1   9   49.11   15.07
 -15  -1  -9   18.90   10.47
 -15   1  -9   32.53   10.82
  15   1   9   39.72   15.01
 -17  -1  -9   -3.20    4.92
  17  -1   9   -2.80    6.73
  17   1   9   23.85   12.50
 -17   1  -9   -0.81    3.19
  18  -2  -9    0.35    7.70
  18  -2  -9   -2.24    5.04
  18   2  -9    3.79    9.73
  18   2  -9   -4.24    5.73
  16  -2  -9    7.21    6.33
  16   2  -9    6.86   11.04
  16   2  -9   16.44    9.93
  14  -2  -9    9.71    6.22
  14   2  -9    7.14    8.06
  12  -2  -9   42.41   12.06
  12   2  -9   39.10   13.11
  10  -2  -9    2.12    5.06
  10   2  -9    4.24    5.77
  10   2  -9    3.09    5.35
   8  -2  -9  643.70   29.56
   8   2  -9  654.20   32.39
   8   2  -9  707.36   36.39
   6  -2  -9    2.22    3.62
   6   2  -9    1.89    3.83
   6   2  -9   -0.76    3.23
   4  -2  -9 1323.67   37.19
  -4  -2   9 1347.33   43.88
   4   2  -9 1311.71   40.51
   4   2  -9 1432.87   46.48
  -2  -2   9    0.68    3.20
   2  -2  -9    0.64    2.34
  -2   2   9   -1.06    2.17
   2   2  -9   -1.30    2.07
   0  -2   9  264.77   13.49
   0  -2  -9  271.06   13.13
   0   2   9  269.07   12.50
   0   2  -9  272.26   13.25
   2  -2   9   -3.78    2.05
  -2  -2  -9   -1.06    2.79
   2   2   9    1.52    2.85
  -2   2  -9   -1.41    2.39
   4  -2   9  654.27   24.52
  -4  -2  -9  617.84   28.52
  -4  -2  -9  668.94   28.62
  -4   2  -9  604.42   24.86
   4   2   9  684.37   26.63
  -6  -2  -9    7.75    5.79
  -6  -2  -9   -0.65    4.17
   6  -2   9    3.56    4.28
   6   2   9    1.65    4.39
  -6   2  -9    1.11    3.79
  -6   2  -9    4.76    3.68
  -8  -2  -9  131.24   15.37
  -8  -2  -9  132.06   15.03
   8  -2   9  117.36   12.86
  -8   2  -9  152.75   14.10
   8   2   9  146.11   15.45
  -8   2  -9  130.66   12.20
 -10  -2  -9   -1.04    4.24
  10  -2   9    4.69    6.08
 -10  -2  -9    0.81    6.48
  10   2   9   -1.56    4.76
 -10   2  -9   -1.75    3.10
  12  -2   9   75.19   17.21
 -12  -2  -9   88.22   19.09
  12   2   9   60.37   15.03
 -12   2  -9   76.15   10.55
 -14  -2  -9   -0.10    4.98
  14  -2   9   -1.64    5.75
  14   2   9    4.95    7.88
 -14   2  -9   -1.61    3.23
  16  -2   9   61.46   20.80
  16   2   9   49.89   16.31
  17  -3  -9   10.97   11.40
  17  -3  -9    9.74    8.19
  17   3  -9    3.89    8.63
  17   3  -9    5.20   10.68
  15  -3  -9    2.37    5.97
  15   3  -9   24.79   13.09
  15   3  -9   19.15    9.41
  13  -3  -9   28.77    9.45
  13   3  -9   27.92   11.44
  13   3  -9    8.30    6.22
  11  -3  -9   63.93   13.25
  11   3  -9  127.34   17.58
  11   3  -9  103.65   14.89
   9   3  -9  145.52   16.01
   9   3  -9  143.25   17.90
   7   3  -9  211.14   17.31
   7   3  -9  209.44   19.44
   5   3  -9   72.53    9.16
   5   3  -9   77.49   11.11
  -3  -3   9  137.86   12.26
   3   3  -9  124.05   12.20
   3   3  -9  135.13   10.41
   1  -3  -9   61.92    6.12
  -1   3   9   68.88    6.04
  -1  -3  -9   13.58    4.75
   1   3   9   21.88    5.33
  -3  -3  -9  489.74   23.14
  -3  -3  -9  468.65   24.50
   3   3   9  482.12   20.74
  -5  -3  -9   71.17   13.19
  -5  -3  -9   69.32   14.28
   5   3   9   67.76   12.05
   7  -3   9   70.26    9.46
  -7   3  -9   77.76    9.58
  -7   3  -9   83.43    8.64
  -9  -3  -9  108.66   20.25
  -9  -3  -9   96.14   18.09
   9   3   9  124.76   21.58
  11  -3   9    5.09    5.94
 -11  -3  -9   11.88    8.44
  11   3   9   24.64   11.12
 -13  -3  -9   13.52   10.11
  13  -3   9   50.54   14.48
  13   3   9   12.85   10.23
  15  -3   9   15.85   10.08
  15   3   9   24.92   11.72
  17  -3   9   30.97   13.48
  17   3   9   18.23   13.68
  16   4  -9    1.69    7.35
  16   4  -9    5.24    8.70
  14  -4  -9  118.66   13.87
  14   4  -9  115.73   26.32
  14   4  -9  124.26   28.03
  12  -4  -9    0.62    3.79
  12   4  -9   -0.13    5.14
  12   4  -9   -0.74    6.06
  10  -4  -9  230.81   17.02
  10   4  -9  229.79   24.19
  10   4  -9  248.54   22.03
   8   4  -9    1.89    4.84
   8   4  -9    0.46    5.08
   6  -4  -9  651.30   24.36
   6   4  -9  672.07   30.44
   6   4  -9  688.25   35.96
   4  -4  -9    0.76    2.51
  -4  -4   9    0.39    3.64
   4   4  -9    0.73    3.75
   4   4  -9    1.15    3.32
  -2  -4   9  315.67   17.78
   2  -4  -9  316.86   13.01
   2   4  -9  298.90   19.18
   2   4  -9  296.62   14.86
  -2   4   9  306.80   12.05
   0  -4   9    0.78    3.02
   0  -4  -9   -1.89    2.33
   0   4  -9   -1.03    2.14
   0   4  -9   -0.76    2.80
   0   4   9    1.03    2.39
  -2  -4  -9 1514.17   45.71
  -2  -4  -9 1460.20   49.70
   2  -4   9 1654.67   42.38
   2   4   9 1539.04   41.63
  -2   4  -9 1542.86   41.01
  -4  -4  -9   -0.66    3.30
   4  -4   9    4.18    3.83
  -4  -4  -9    1.36    4.03
   4   4   9   -1.24    3.50
  -4   4  -9    0.79    3.23
  -6  -4  -9  816.58   38.09
   6  -4   9  799.67   29.96
  -6  -4  -9  803.82   39.72
   6   4   9  833.27   35.35
  -6   4  -9  885.09   30.45
  -8  -4  -9   -1.16    4.83
  -8  -4  -9    4.23    4.34
   8  -4   9   -1.87    3.53
   8   4   9    5.21    6.24
  10  -4   9  483.04   27.42
 -10  -4  -9  463.77   33.47
 -10  -4  -9  500.07   34.59
  10   4   9  491.93   31.92
  10   4   9  477.42   31.65
  12  -4   9   -1.91    4.78
 -12  -4  -9    7.63    5.57
  12   4   9    4.26    6.56
  12   4   9   -1.46    5.28
  14  -4   9   24.59   10.81
  14   4   9   23.99   11.24
  16  -4   9   -4.01    5.17
  16   4   9    4.92    7.98
  17  -5  -9   -1.75    6.84
  17   5  -9   24.87   15.37
  17   5  -9    3.34    9.40
  15   5  -9   13.70   10.09
  15   5  -9    6.67    8.76
  13   5  -9   42.34   14.27
  13   5  -9   33.80   14.72
 -11  -5   9   51.11   13.48
  11   5  -9   61.48   16.83
  -9  -5   9  140.97   16.79
   9   5  -9  151.60   16.47
   9   5  -9  150.45   19.53
  -7  -5   9   14.02    6.80
   7   5  -9   18.31    9.01
   7   5  -9   18.43    7.47
  -5  -5   9  127.27   13.92
   5   5  -9  144.88   12.93
   5   5  -9  131.16   15.39
  -3  -5   9  113.91   12.17
   3   5  -9  126.41   14.01
   3   5  -9  121.83   10.44
  -1  -5   9  357.59   18.79
   1   5  -9  346.32   20.95
   1   5  -9  351.11   15.98
  -1  -5  -9  242.64   14.49
  -1  -5  -9  211.01   16.65
   1   5   9  236.27   11.89
  -3  -5  -9  106.63   12.85
  -3  -5  -9  108.92   11.52
   3   5   9   94.59    9.23
  -5  -5  -9   83.45   11.80
  -5  -5  -9   90.28   12.91
   5   5   9  113.94   11.56
  -7  -5  -9   68.10   14.76
  -7  -5  -9   79.91   16.67
   7   5   9   73.64   14.13
   7   5   9   80.42   16.97
  -9  -5  -9  263.93   24.33
  -9  -5  -9  226.06   23.16
   9   5   9  250.39   23.28
   9   5   9  256.30   22.25
 -11  -5  -9   36.69   13.36
  11   5   9   12.05    9.02
  11   5   9   23.59   10.04
  13   5   9  125.66   24.97
  15  -5   9   72.51   19.08
  15   5   9   12.76   11.83
  17  -5   9    5.25    9.48
  17   5   9   28.49   13.94
  16   6  -9  109.64   28.70
  16   6  -9   68.83   22.53
  14   6  -9    2.00    7.27
  14   6  -9   16.20    9.10
  12   6  -9   17.30   10.48
  12   6  -9   44.13   15.08
 -10  -6   9    2.18    5.35
  10   6  -9   10.31    8.16
   8  -6  -9   52.19    6.77
  -8  -6   9   52.15   14.06
   8   6  -9   39.92   10.32
   8   6  -9   36.41   11.94
  -6  -6   9    0.97    3.89
   6  -6  -9    0.38    2.37
   6   6  -9    3.91    6.04
   6   6  -9   -0.75    3.21
   4  -6  -9  907.65   25.24
  -4  -6   9  895.37   39.37
   4   6  -9  928.32   42.93
   4   6  -9  941.05   33.77
   2  -6  -9   -0.80    2.02
   2  -6  -9   -1.16    2.69
  -2  -6   9   -3.53    2.96
   2   6  -9   -1.75    2.58
   2   6  -9    2.15    3.33
   0  -6  -9  601.48   23.07
   0  -6  -9  542.10   27.73
   0  -6   9  610.47   24.77
   0   6   9  575.36   18.30
   0   6  -9  589.06   21.32
   0   6  -9  579.76   28.10
   2  -6   9    1.35    3.13
  -2  -6  -9    2.11    4.03
  -2  -6  -9    1.02    3.64
  -2   6  -9    1.29    2.59
  -2   6  -9    0.38    3.07
   2   6   9    2.95    3.20
   4  -6   9  579.83   21.72
  -4  -6  -9  532.86   31.86
  -4  -6  -9  543.28   28.99
  -4   6  -9  552.30   19.12
   4   6   9  537.01   24.42
  -4   6  -9  559.75   22.63
  -6  -6  -9    1.94    5.44
   6  -6   9   -0.76    3.12
  -6  -6  -9    2.05    4.34
   6   6   9    0.03    3.79
   6   6   9    1.00    4.12
   8  -6   9  810.11   31.81
  -8  -6  -9  772.00   44.82
  -8  -6  -9  786.24   43.32
   8   6   9  780.31   38.43
   8   6   9  764.09   41.69
 -10  -6  -9    9.19    7.78
  10  -6   9    4.98    5.74
 -10  -6  -9   -2.32    5.37
  10   6   9   -1.26    5.53
  10   6   9    1.87    5.91
  12  -6   9  196.01   18.49
  12   6   9  189.39   21.78
  12   6   9  165.64   21.00
  14  -6   9   -2.18    4.23
  14   6   9   13.49    9.92
  14   6   9    7.04    7.96
  16  -6   9    3.01    6.94
  16   6   9    4.35    9.69
  15   7  -9   31.57   15.99
  15   7  -9   18.78   12.06
  13   7  -9   14.03   11.26
  13   7  -9   42.01   15.72
  11   7  -9  121.39   27.73
  11   7  -9   85.60   21.53
  -9  -7   9   74.15   18.48
   9   7  -9   79.36   22.16
   9   7  -9   57.87   13.19
  -7  -7   9   48.28   12.44
   7   7  -9   63.29   13.49
   7   7  -9   45.05   12.99
  -5  -7   9   39.87   11.01
   5   7  -9   48.20   10.74
   5   7  -9   49.86   14.62
  -3  -7   9  160.20   15.37
  -3  -7   9  149.58   15.10
   3   7  -9  157.00   17.08
   3   7  -9  180.69   12.59
  -1  -7   9  107.82   11.16
   1   7  -9   92.63   12.27
   1   7  -9   78.78    7.79
  -1  -7  -9   51.51   11.67
  -1  -7  -9   60.85    8.21
   1   7   9   47.06    5.56
  -3  -7  -9  228.81   20.75
  -3  -7  -9  238.11   18.37
   3   7   9  307.83   16.13
  -5  -7  -9   42.26   12.38
   5   7   9   37.72   12.35
   5   7   9   27.49    8.38
  -7  -7  -9  118.83   15.99
  -7  -7  -9  119.58   16.88
   7   7   9  109.56   16.11
   7   7   9   99.20   13.28
  -9  -7  -9  105.98   23.71
   9   7   9   67.72   17.02
   9   7   9   87.69   17.36
  11   7   9   50.04   14.04
  11   7   9   56.18   15.89
  13  -7   9   92.87   13.46
  13   7   9   37.93   15.41
  13   7   9   53.76   14.37
  15  -7   9   18.26    9.65
  15   7   9   47.16   16.74
  15   7   9   35.17   16.43
  16   8  -9    5.50   10.72
  16   8  -9    5.09    9.55
  14   8  -9   40.08   15.45
  14   8  -9   69.28   22.70
  12   8  -9    5.87    7.39
  12   8  -9   -4.69    5.35
  10   8  -9  151.58   22.37
  10   8  -9  146.42   26.90
   8  -8  -9    1.53    2.94
   8  -8  -9    0.29    2.43
   8   8  -9    3.66    6.96
   8   8  -9   -0.43    5.04
   8   8  -9   -1.30    4.32
  -6  -8   9  185.09   19.58
   6  -8  -9  192.42   14.79
   6  -8  -9  199.30    9.95
   6   8  -9  210.88   16.84
   6   8  -9  199.68   22.61
   4  -8  -9    2.35    3.82
  -4  -8   9   -0.89    2.99
   4  -8  -9    1.68    2.32
   4   8  -9    1.52    3.86
   4   8  -9    2.03    5.79
   2  -8  -9   65.20   12.73
  -2  -8   9   52.03   11.61
  -2  -8   9   61.97   13.34
   2  -8  -9   52.60    6.19
   2   8  -9   58.33    7.21
   2   8  -9   42.03   12.08
   0  -8  -9    2.45    3.77
   0  -8   9    0.48    3.06
   0  -8  -9   -0.96    3.25
   0   8  -9   -1.73    3.17
   0   8  -9    2.09    2.39
   0   8   9    1.17    1.39
  -2  -8  -9  363.63   26.81
  -2  -8  -9  345.07   21.50
   2  -8   9  317.15   17.17
  -2   8  -9  405.60   14.39
   2   8   9  386.47   16.49
  -2   8  -9  394.77   23.25
  -4  -8  -9    6.91    4.94
   4  -8   9    2.46    3.41
  -4   8  -9   -0.41    3.23
   4   8   9    4.46    6.70
   4   8   9   -2.41    3.51
  -6  -8  -9  311.38   25.43
  -6  -8  -9  293.60   26.63
   6  -8   9  302.55   16.21
   6   8   9  295.37   25.98
   6   8   9  322.12   21.67
  -8  -8  -9    8.51    7.92
   8  -8   9   -0.72    3.71
  -8  -8  -9   13.21    8.63
   8   8   9    5.45    6.33
   8   8   9   -0.39    5.39
  10  -8   9  216.75   16.73
  10   8   9  233.15   22.33
  10   8   9  178.90   22.46
  12  -8   9   -0.41    4.89
  12   8   9    2.88    7.44
  12   8   9    6.77    8.48
  14  -8   9   29.29   10.26
  14   8   9   27.40   12.48
  14   8   9   36.84   14.43
  15   9  -9    2.30    8.65
  15   9  -9    5.34    9.94
  13   9  -9   31.46   15.37
  13   9  -9   10.75   11.60
  11   9  -9   42.56   14.47
  11   9  -9   48.18   16.31
   9   9  -9  156.23   20.72
   9   9  -9  167.98   18.16
   9   9  -9  152.73   22.55
  -7  -9   9   63.68   16.93
   7   9  -9   57.60   17.96
   7   9  -9   69.98   14.23
   7   9  -9   80.63   19.21
  -5  -9   9  146.97   17.37
   5   9  -9  145.37   13.29
   5   9  -9  123.30   18.12
   5   9  -9  119.34   15.51
  -3  -9   9   67.30   15.35
  -3  -9   9   61.88   14.27
   3   9  -9   45.69    8.74
   3   9  -9   67.71   13.68
   3   9  -9   40.09   13.11
  -1  -9   9   74.07   10.32
   1  -9  -9   54.08   14.42
   1   9  -9   71.21    9.50
   1   9  -9   87.77   16.80
   1   9  -9   81.21    7.87
   1  -9   9   40.41    9.42
  -1   9  -9   37.30   10.73
  -1   9  -9   43.88    6.06
  -1   9  -9   40.91    4.87
  -3  -9  -9   91.08   18.79
  -3  -9  -9   83.28   15.67
   3   9   9   70.53    8.18
  -5  -9  -9  200.01   22.27
  -5  -9  -9  195.48   19.64
   5   9   9  194.07   21.24
   5   9   9  231.46   17.07
  -7  -9  -9   66.41   17.76
   7   9   9   51.24   13.07
   7   9   9   54.54   15.14
  -9  -9  -9  100.06   29.75
  -9  -9  -9  148.03   21.15
   9   9   9  126.42   18.76
   9   9   9  114.76   20.67
  11  -9   9   41.78   10.38
  11   9   9    9.07    9.73
  11   9   9   25.67   10.57
  13   9   9   36.91   14.28
  13   9   9   51.41   16.32
  15  -9   9   36.37   13.03
  15   9   9   22.99   15.88
  15   9   9    4.92   10.54
  14 -10  -9    1.96    6.44
  14  10  -9    6.01    8.78
  14  10  -9    2.17    9.17
  12 -10  -9   44.56   10.97
  12  10  -9   31.61   16.77
  12  10  -9   47.11   16.89
  10 -10  -9    2.91    3.98
  10  10  -9   14.01    8.17
  10  10  -9    0.44    7.68
  10  10  -9    7.97    7.18
   8 -10  -9  239.94   11.43
   8  10  -9  224.97   28.72
   8  10  -9  212.01   23.93
   8  10  -9  250.95   20.66
  -6 -10   9    1.53    4.67
   6 -10  -9    5.72    2.60
   6 -10  -9   -2.56    2.96
   6  10  -9    6.51    5.43
   6  10  -9    4.19    5.32
   6  10  -9   -2.21    4.91
  -4 -10   9  381.55   28.77
   4 -10  -9  384.32   25.20
   4 -10  -9  395.93   15.84
   4  10  -9  388.43   31.70
   4  10  -9  400.73   26.95
   4  10  -9  437.71   21.88
  -2 -10   9    0.91    3.48
  -2 -10   9    1.57    3.78
   2 -10  -9    1.23    4.76
   2 -10  -9    5.97    3.75
   2  10  -9    0.42    4.53
   2  10  -9    0.73    6.00
   2  10  -9    8.42    4.28
   0 -10  -9  194.65   19.94
   0 -10  -9  232.22   16.54
   0 -10   9  245.90   18.06
   0  10  -9  233.85   21.64
   0  10  -9  236.39   14.37
   0  10  -9  221.20   11.53
  -2 -10  -9    7.40    6.36
  -2 -10  -9    4.64    5.77
   2 -10   9    2.19    4.08
  -2  10  -9    4.96    6.03
   2  10   9    2.20    3.08
  -4 -10  -9  292.93   27.29
   4 -10   9  320.64   17.41
  -4 -10  -9  308.85   24.85
   4  10   9  345.28   19.24
   4  10   9  326.97   27.80
  -4  10  -9  332.07   21.48
  -6 -10  -9    6.73    6.71
   6 -10   9    5.71    4.36
  -6 -10  -9   23.12   13.04
   6  10   9    4.49    5.52
   6  10   9    6.00    7.24
   8 -10   9   95.28   10.25
  -8 -10  -9  113.63   24.75
   8  10   9  107.44   24.77
   8  10   9   93.47   17.32
  10 -10   9    2.39    4.45
  10  10   9    0.22    6.68
  10  10   9    1.16    6.22
  12 -10   9   68.18   13.17
  12  10   9   72.57   22.02
  12  10   9   76.13   19.00
  14 -10   9    2.35    6.01
  14  10   9   -3.38    6.00
  14  10   9    8.71    9.65
  13 -11  -9   15.73    8.22
  13  11  -9    3.63   10.87
  13  11  -9    8.50   12.30
  11 -11  -9   22.31    6.61
  11  11  -9   35.63   16.11
  11  11  -9   35.26   15.10
   9 -11  -9   75.20    6.60
   9  11  -9   34.35   13.99
   9  11  -9   63.05   22.10
  -7 -11   9   38.94   13.31
   7  11  -9   31.06   12.33
   7  11  -9   42.92   14.47
   7  11  -9   31.81    9.37
   5 -11  -9   73.04   14.20
  -5 -11   9   34.28   11.80
   5  11  -9   14.13    9.20
   5  11  -9   32.80    8.57
   5  11  -9   41.49   15.60
  -3 -11   9   69.26   16.56
   3 -11  -9   47.14   12.24
   3  11  -9   91.56   16.10
   3  11  -9  111.59   24.25
   3  11  -9   84.78    9.10
   1 -11  -9   85.02   18.14
  -1 -11   9   37.19   11.14
  -1 -11   9   35.34   10.39
   1  11  -9   19.16    9.92
   1  11  -9   39.50    8.67
   1  11  -9   33.00    6.46
  -1 -11  -9   26.84   11.28
   1 -11   9   63.79   12.31
  -1 -11  -9   35.95    9.47
  -1  11  -9   65.97   15.39
  -3 -11  -9   87.84   19.91
  -3 -11  -9   87.26   17.98
   3  11   9   62.83    7.27
   3  11   9   76.93    8.73
  -5 -11  -9    3.55    7.45
  -5 -11  -9    6.84    8.91
   5 -11   9   17.38    5.95
   5  11   9    7.41    6.13
   5  11   9   13.31    8.14
  -7 -11  -9   44.46   14.83
   7 -11   9    9.32    5.40
  -7 -11  -9   13.04   17.32
   7  11   9   17.94   11.66
   7  11   9   32.81    9.68
   9  11   9   32.09   13.55
   9  11   9   26.47   10.49
  11 -11   9    5.28    5.59
  11  11   9   33.62   17.62
  11  11   9   19.77   10.57
  13 -11   9   50.17   12.19
  13  11   9   19.65   10.08
  13  11   9   45.41   20.89
  12 -12  -9   -0.70    3.93
  12  12  -9    7.67    9.78
  12  12  -9    0.21    6.81
  10 -12  -9  123.85    8.88
  10  12  -9  156.37   31.14
  10  12  -9  128.12   31.67
   8 -12  -9    3.59    2.22
   8  12  -9    0.28    4.39
   8  12  -9    2.32    7.10
  -6 -12   9  149.42   20.11
   6 -12  -9  133.58    8.47
   6 -12  -9  135.46   15.29
   6  12  -9  142.53   18.06
   6  12  -9  176.43   23.84
   6  12  -9  145.44   14.98
   4 -12  -9    6.35    5.56
  -4 -12   9    1.89    6.11
   4  12  -9   -3.49    4.73
   4  12  -9    6.23    4.82
   4  12  -9    6.80    6.77
  -2 -12   9  140.88   17.21
   2 -12  -9  139.48   17.17
   2 -12  -9  146.99   13.17
   2  12  -9  144.09   10.67
   2  12  -9  128.16   23.94
   2  12  -9  143.47   13.40
   0 -12   9    7.52    5.58
   0 -12  -9    3.05    5.11
   0 -12  -9   10.20    6.64
   0  12  -9    0.97    5.35
   2 -12   9  166.12   15.29
  -2 -12  -9  174.19   21.95
  -2 -12  -9  211.08   19.93
  -2  12  -9  185.14   19.19
  -4 -12  -9    5.85    6.80
  -4 -12  -9   -2.84    5.82
   4 -12   9    7.82    4.82
   4  12   9   11.69    5.49
   4  12   9   -2.49    4.89
   4  12   9    6.67    4.48
  -4  12  -9    3.65    5.51
   6 -12   9   15.74    5.87
  -6 -12  -9   11.32   10.58
   6  12   9    8.43    7.17
   6  12   9    8.67    8.96
   8 -12   9   12.32    4.35
   8  12   9    7.85    6.18
   8  12   9    7.88    7.88
  10 -12   9   64.68   11.56
  10  12   9   71.13   18.51
  10  12   9   59.52   21.00
  12 -12   9    1.45    5.08
  12  12   9    1.55    9.01
  12  12   9    2.10    7.55
  11  13  -9   17.77   11.64
  11  13  -9   18.89   16.25
   9  13  -9   90.99   22.91
   9  13  -9   62.53   19.03
   7 -13  -9   54.36   13.00
   7  13  -9   29.50    9.78
   7  13  -9   14.63    9.22
   7  13  -9   23.36   11.91
   5 -13  -9   53.00   13.67
  -5 -13   9  111.15   24.25
   5 -13  -9   55.09    6.87
   5  13  -9   88.35   17.39
   5  13  -9   89.01   23.56
   5  13  -9   85.41   10.36
  -3 -13   9   32.20   11.28
   3 -13  -9  113.48   21.40
   3  13  -9   54.43    7.30
   3  13  -9   49.13   10.94
   3  13  -9   52.13   15.55
   1 -13  -9   58.19   16.42
   1 -13  -9   68.64   13.73
   1  13  -9  102.50   21.51
  -1 -13  -9   73.34   18.79
   1 -13   9   35.09    9.99
  -1  13  -9   49.69   13.23
  -3 -13  -9   10.25    9.11
  -3 -13  -9   33.07   12.83
   3 -13   9   62.85   11.80
  -3  13  -9   72.98   16.12
   3  13   9   37.69    4.05
  -5 -13  -9   66.44   19.63
   5  13   9   64.61    8.82
   5  13   9   64.09   13.11
   7 -13   9   51.40    9.74
   7  13   9   21.09    8.68
   7  13   9   10.90   11.27
   9  13   9   63.10   19.19
   9  13   9   62.82   15.89
  11 -13   9   34.01    9.28
  11  13   9   10.83   13.13
  11  13   9   -0.20    7.84
  10  14  -9    3.74    8.04
  10  14  -9    0.45    6.37
   8  14  -9  156.30   20.78
   8  14  -9  170.38   36.76
   6 -14  -9    4.68    6.38
   6 -14  -9    6.73    4.34
   6  14  -9    4.71    8.22
   6  14  -9   10.93    6.01
   6  14  -9    9.86    7.62
   4 -14  -9  196.02   21.52
   4 -14  -9  250.35   18.00
   4  14  -9  194.24   17.97
   4  14  -9  189.79   14.87
   4  14  -9  190.02   25.87
  -2 -14   9    3.03    7.37
   2 -14  -9    5.93    6.56
   2 -14  -9   -2.54    4.63
   2  14  -9   -0.06    5.53
   0 -14  -9  161.74   23.07
   0 -14  -9  168.14   18.84
   0 -14   9  147.32   17.50
   0  14  -9  145.66   26.61
  -2 -14  -9    8.84    6.91
   2 -14   9   11.32    4.95
  -2 -14  -9   -2.09    4.96
  -2  14  -9    6.20    6.52
  -4 -14  -9  191.31   24.66
   4 -14   9  162.28   15.08
  -4  14  -9  174.19   18.52
   4  14   9  147.79    9.28
   6 -14   9   15.35    5.16
   6  14   9    7.83    5.66
   6  14   9    4.77    4.77
   6  14   9    7.99    7.76
   8 -14   9  106.39   11.12
   8  14   9  130.51   16.58
   8  14   9  113.45   22.78
   8  14   9  133.25   32.92
  10 -14   9   10.55    4.66
  10  14   9    0.04    6.97
  10  14   9    3.59    8.61
   9  15  -9   28.02   16.40
   9  15  -9   13.01    9.46
   7 -15  -9   15.45    6.73
   7 -15  -9   19.73    8.50
   7  15  -9   49.06   12.03
   7  15  -9   45.07   13.84
   7  15  -9   23.46   13.06
   5 -15  -9   51.29   14.08
   5  15  -9   18.63    8.82
   5  15  -9    4.93    9.67
   3 -15  -9   14.29    9.36
   3 -15  -9    5.02    8.23
   3  15  -9   37.45   15.01
   1 -15  -9   18.72   11.91
   1 -15  -9   22.58   11.91
   1  15  -9   18.40   11.60
  -1 -15  -9   15.69   11.44
   1 -15   9   28.80   10.69
  -1  15  -9   29.82   11.90
  -3 -15  -9   66.90   19.30
   3 -15   9   32.19    9.71
  -3  15  -9   28.12   10.95
   5 -15   9   51.92   11.70
   7 -15   9   23.15    7.62
   7  15   9   34.67    9.64
   9 -15   9   40.93    9.14
   9  15   9    7.38   12.34
   9  15   9   19.71   10.49
   8  16  -9    2.54    8.66
   8  16  -9    2.55    6.56
   6 -16  -9   99.94   14.16
   6 -16  -9   92.10   18.35
   6  16  -9  124.83   33.08
   4 -16  -9    6.54    8.04
   4 -16  -9    8.16    8.05
   4  16  -9    4.97    9.47
   2 -16  -9  107.83   26.00
   2 -16  -9  144.79   27.63
   2  16  -9  123.56   28.16
   0 -16  -9    3.43    7.59
   0  16  -9   -4.07    3.88
  -2 -16  -9  212.42   38.20
  -2  16  -9  119.84   24.74
   4 -16   9   13.70    6.45
  -4  16  -9    5.15    5.36
   5 -17  -9    4.36    9.36
   5 -17  -9    9.33   10.12
   5  17  -9   31.38   17.31
   3 -17  -9   49.64   16.75
   3 -17  -9   24.48   12.36
   3  17  -9   33.64   15.56
   1 -17  -9   16.22   13.57
   1  17  -9   31.30   13.57
  -1  17  -9   29.21   12.88
  -3  17  -9   36.05   14.35
   5 -17   9    3.77    7.15
  18   0 -10   -4.09    6.95
  18   0 -10    2.37    6.77
  16   0 -10  419.86   37.86
  14   0 -10    0.67    5.05
  12   0 -10  264.09   23.68
  10   0 -10   -0.69    4.81
  10   0 -10    2.30    5.56
   8   0 -10  284.73   20.98
   8   0 -10  308.51   20.57
   6   0 -10    0.38    3.29
   6   0 -10    0.44    3.25
  -4   0  10 3087.40  432.12
   4   0 -10 3448.52  157.11
  -4   0  10 3469.07  180.07
   4   0 -10 3445.77  465.55
  -2   0  10    1.70    3.22
   2   0 -10   -0.39    2.93
   0   0 -10 3865.45  161.17
   0   0  10 4149.45  166.59
   0   0 -10 5394.54  551.00
  -2   0 -10    5.62    4.16
   2   0  10    1.08    3.23
   4   0  10  773.43   28.65
  -4   0 -10  773.18   30.52
  -6   0 -10    3.81    4.87
   6   0  10    2.04    4.21
  -6   0 -10   -2.77    2.55
  -8   0 -10  763.18   36.75
  -8   0 -10  763.39   35.36
   8   0  10  801.41   36.01
 -10   0 -10    0.71    3.39
  10   0  10    2.89    5.65
 -10   0 -10   -1.57    5.05
  12   0  10  308.87   26.04
 -12   0 -10  294.34   24.09
 -14   0 -10    0.19    5.56
  14   0  10    9.31    8.22
  16   0  10   10.92    9.84
 -16   0 -10    2.48    5.85
  17  -1 -10   36.52   14.58
  17  -1 -10   17.51   14.34
  17   1 -10    7.24    8.87
  17   1 -10   16.74   13.51
  15  -1 -10   10.88    9.02
  15   1 -10   71.39   18.61
  13  -1 -10   46.02   14.15
  13   1 -10   21.37    9.57
  13   1 -10   24.68   11.77
  11   1 -10   92.62   18.35
  11   1 -10   95.41   17.94
   9   1 -10   91.95   13.34
   9   1 -10   97.49   12.81
   7  -1 -10   67.52   11.86
   7  -1 -10   68.89   13.10
   5   1 -10   95.34   11.12
   5   1 -10   81.63    9.21
   3  -1 -10  131.07    9.36
  -3   1  10  142.21   10.73
   1  -1 -10  281.87   13.59
  -1   1  10  261.74   13.41
   1  -1  10  160.50   10.62
  -1   1 -10  135.59    9.96
  -3  -1 -10  269.75   16.42
   3   1  10  249.73   14.42
   5  -1  10   18.53    6.30
  -5  -1 -10    8.46    5.84
  -5  -1 -10    9.86    4.85
   5   1  10    0.15    3.52
  -5   1 -10   15.34    6.32
   7  -1  10   29.20    8.42
  -7   1 -10   34.72    8.74
   7   1  10   71.40   13.38
  -7   1 -10   25.35    8.31
   9  -1  10  238.41   19.68
  -9   1 -10  216.61   17.71
  -9   1 -10  243.34   19.88
 -11  -1 -10   46.78   13.44
  11   1  10   36.92   12.53
  13  -1  10  117.88   16.49
 -13   1 -10  111.42   14.58
 -15  -1 -10   40.16   13.41
  15   1  10   37.47   14.04
  17  -1  10   28.94   13.95
  17   1  10    3.66    8.92
 -17   1 -10    0.20    4.32
  18  -2 -10   59.90   17.12
  18  -2 -10   86.14   25.45
  18   2 -10   68.48   22.82
  18   2 -10   78.28   23.03
  16  -2 -10    4.90    6.99
  16   2 -10   16.11    9.23
  16   2 -10   -4.08    5.27
  14  -2 -10  321.47   25.65
  14   2 -10  330.24   30.39
  12  -2 -10    3.20    5.30
  12   2 -10   -0.57    5.31
  12   2 -10    3.78    5.87
  10  -2 -10  285.69   21.32
  10   2 -10  283.22   22.36
  10   2 -10  272.87   24.28
   8  -2 -10    3.89    4.41
   8  -2 -10    0.18    2.97
   8   2 -10    3.74    4.96
   8   2 -10   -1.63    3.70
   6  -2 -10  413.91   20.35
   6   2 -10  454.55   26.31
   6   2 -10  446.57   23.31
   4  -2 -10    0.60    2.93
  -4  -2  10   -1.48    3.66
   4   2 -10    0.83    3.33
   4   2 -10   -3.53    2.72
   2  -2 -10  411.48   16.30
  -2  -2  10  409.97   19.63
   2   2 -10  399.73   17.34
  -2   2  10  401.71   16.91
   0  -2 -10    0.67    2.71
   0  -2  10    3.83    3.51
   0   2  10    3.59    3.18
   0   2 -10    3.75    3.11
   2  -2  10 1214.51   35.02
  -2  -2 -10 1170.94   37.56
  -2   2 -10 1170.52   35.58
   2   2  10 1180.84   34.88
  -4  -2 -10    2.57    3.68
   4  -2  10    2.64    3.60
  -4  -2 -10   -0.49    3.42
  -4   2 -10    2.97    3.76
   4   2  10    1.99    3.94
   6  -2  10  626.16   27.23
  -6  -2 -10  625.39   31.45
  -6  -2 -10  629.40   31.82
  -6   2 -10  647.38   26.42
   6   2  10  661.21   30.04
  -6   2 -10  633.49   28.41
   8  -2  10   -0.01    4.38
  -8  -2 -10    2.04    5.21
  -8  -2 -10    1.08    4.24
  -8   2 -10    3.64    4.21
  -8   2 -10    2.12    5.04
   8   2  10    1.87    5.19
 -10  -2 -10  211.61   21.53
  10  -2  10  207.17   18.68
 -10  -2 -10  204.35   20.38
 -10   2 -10  237.50   17.85
  10   2  10  208.75   20.12
 -12  -2 -10    1.31    5.92
  12  -2  10    2.43    5.99
 -12   2 -10    2.04    5.11
  12   2  10    0.30    5.59
  14  -2  10  143.46   25.08
 -14  -2 -10  110.87   22.91
 -14   2 -10   93.03   16.88
  14   2  10  103.74   21.53
  16  -2  10   -1.22    6.84
  16   2  10    0.81    7.00
  17  -3 -10    8.94   10.75
  17  -3 -10    9.80    8.54
  17   3 -10   10.76   12.67
  17   3 -10   12.07   11.79
  15  -3 -10   42.23   12.17
  15   3 -10   21.18   13.09
  15   3 -10    8.82    9.71
  13  -3 -10   -0.95    3.14
  13   3 -10    8.18    8.98
  13   3 -10    0.34    5.38
  11  -3 -10   75.74   14.57
  11   3 -10   40.72   13.99
  11   3 -10   53.10   13.58
   9  -3 -10  129.87   12.89
   9  -3 -10  118.11   12.60
   7   3 -10   98.31   11.77
   7   3 -10  103.08   14.21
   5   3 -10  247.80   19.44
   5   3 -10  237.74   16.04
  -3  -3  10   57.24   11.10
   3   3 -10   56.49   10.59
   3   3 -10   49.19    6.97
  -1  -3  10   59.57    9.77
   1   3 -10   52.34    6.35
   1  -3  10   41.64    7.73
  -1   3 -10   31.99    6.74
  -3  -3 -10  153.28   13.06
  -3  -3 -10  156.95   14.22
   3   3  10  157.57   11.66
  -5  -3 -10  188.65   16.61
  -5  -3 -10  191.52   16.45
   5   3  10  175.38   14.29
  -7  -3 -10   60.63   14.19
  -7  -3 -10   52.87   13.56
   7   3  10   72.00   13.77
  -9  -3 -10  186.00   19.67
  -9  -3 -10  210.81   20.96
   9   3  10  178.09   18.25
 -11  -3 -10   -1.94    4.50
 -11  -3 -10    5.93    8.71
  11  -3  10   10.68    7.39
  11   3  10    3.61    6.43
 -11   3 -10   16.96    7.01
  13  -3  10   31.59   11.13
 -13  -3 -10   94.54   21.37
  13   3  10   63.04   16.62
  15  -3  10   58.02   15.47
  15   3  10    4.66    9.12
  17  -3  10   11.74   10.83
  17   3  10   28.49   13.73
  16  -4 -10  160.77   18.41
  16   4 -10  197.98   36.74
  16   4 -10  137.92   28.00
  14  -4 -10    4.17    5.37
  14   4 -10    0.45    5.74
  14   4 -10    2.95    7.61
  12  -4 -10    3.99    5.23
  12   4 -10    8.81    7.26
  12   4 -10    6.82    8.73
  10  -4 -10    3.67    4.11
  10   4 -10   -0.20    6.05
  10   4 -10    3.96    6.20
   8  -4 -10  330.72   18.89
   8   4 -10  326.36   22.98
   8   4 -10  334.49   26.94
   6  -4 -10    1.08    2.83
   6   4 -10   -3.97    2.45
   6   4 -10    0.01    3.86
  -4  -4  10  924.46   37.39
   4  -4 -10  890.01   27.10
   4   4 -10  910.73   32.84
   4   4 -10  888.44   39.01
  -2  -4  10   -1.65    2.84
   2  -4 -10   -0.04    2.34
   2   4 -10    0.71    3.63
  -2   4  10    0.19    2.20
   2   4 -10    0.13    3.02
   0  -4  10  202.74   13.17
   0  -4 -10  229.10   12.97
   0   4  10  209.95   11.14
   0   4 -10  200.84   12.14
  -2  -4 -10    3.40    4.05
  -2  -4 -10   -0.11    3.15
   2  -4  10    5.59    4.07
   2   4  10    0.39    2.88
  -2   4 -10    0.75    2.99
  -4  -4 -10  945.66   41.07
   4  -4  10 1129.08   33.87
  -4  -4 -10  974.03   39.15
   4   4  10 1066.30   36.21
  -4   4 -10 1035.55   33.67
  -6  -4 -10    1.80    4.92
   6  -4  10    2.19    3.53
  -6  -4 -10    1.65    4.61
  -6   4 -10    1.12    3.54
   6   4  10    2.87    4.65
   8  -4  10  632.64   28.96
  -8  -4 -10  598.33   36.29
  -8  -4 -10  613.57   36.25
   8   4  10  622.13   33.17
  -8   4 -10  615.30   27.06
 -10  -4 -10   -0.17    6.11
 -10  -4 -10    3.17    5.82
  10  -4  10    3.05    5.19
  10   4  10    0.57    4.96
  12  -4  10  152.40   16.75
 -12  -4 -10  141.85   19.78
  12   4  10  139.84   18.08
  14  -4  10    1.36    6.10
  14   4  10   -0.66    7.57
  16  -4  10  127.28   18.28
  16   4  10  157.08   29.57
  17  -5 -10   39.80   16.21
  17   5 -10   14.84   11.19
  17   5 -10   10.81   12.43
  15   5 -10   44.06   16.27
  15   5 -10   45.71   17.29
  13  -5 -10   23.09    7.77
  13   5 -10    1.49    7.19
  13   5 -10    1.64    7.01
  11  -5 -10   22.55    7.43
  11   5 -10   56.64   18.43
   9  -5 -10   93.37   10.05
   9  -5 -10   97.67   10.66
   7  -5 -10   31.27    6.90
   7   5 -10   56.20   13.65
   7   5 -10   74.16   13.86
   5   5 -10   73.48    9.48
   5   5 -10  106.81   19.93
  -3  -5  10  223.78   17.14
   3   5 -10  218.81   18.51
   3   5 -10  227.83   14.14
  -1  -5  10   72.25    9.02
   1   5 -10   80.74    7.82
   1   5 -10   95.42   11.38
   1  -5  10  180.89   12.24
  -1   5 -10  164.45   10.85
  -1   5 -10  172.95   13.54
  -3  -5 -10  315.01   19.83
  -3  -5 -10  320.37   22.37
   3   5  10  300.26   16.51
  -5  -5 -10   18.84    8.78
  -5  -5 -10   24.81    9.49
   5   5  10   17.99    6.62
  -7  -5 -10  114.20   14.84
  -7  -5 -10  102.96   15.00
   7   5  10   94.63   12.58
  -9  -5 -10   82.78   18.79
  -9  -5 -10   83.00   20.88
   9   5  10   47.77   13.58
 -11  -5 -10  104.47   23.98
  11   5  10   59.88   15.75
  13   5  10   52.26   15.65
  15   5  10   69.38   20.02
  17  -5  10   25.66   11.87
  17   5  10   14.09    8.83
  16   6 -10   -0.56    6.17
  16   6 -10   11.62    9.61
  14   6 -10  112.39   26.54
  14   6 -10  122.05   29.51
  12   6 -10   -0.97    6.31
  12   6 -10    3.59    5.73
 -10  -6  10   23.85   10.09
  10  -6 -10   30.69    8.36
  10  -6 -10   33.97    8.60
  10   6 -10   22.61   10.57
   8  -6 -10    1.80    3.63
  -8  -6  10    0.92    4.59
   8   6 -10   -0.36    4.37
   8   6 -10    0.55    5.67
   6  -6 -10  118.17    8.80
   6   6 -10  144.06   17.79
   6   6 -10  131.96   13.32
   4  -6 -10    1.91    2.51
  -4  -6  10    3.85    4.88
   4   6 -10   -0.45    4.11
   4   6 -10    1.83    3.86
  -2  -6  10  161.40   14.28
   2  -6 -10  167.03   14.44
   2  -6 -10  180.58   10.38
   2   6 -10  156.31   11.41
   2   6 -10  158.66   15.97
   0  -6 -10    2.30    3.72
   0  -6  10   -3.74    2.29
   0  -6 -10    4.93    3.51
   0   6 -10    1.32    3.35
   0   6 -10   -1.09    2.37
   0   6  10   -1.11    2.08
  -2  -6 -10  316.11   19.25
   2  -6  10  342.87   16.94
  -2  -6 -10  330.68   23.00
   2   6  10  320.24   15.68
  -2   6 -10  312.76   14.98
  -2   6 -10  320.63   18.94
   4  -6  10   -1.68    2.64
  -4  -6 -10    4.54    3.82
  -4  -6 -10    3.56    4.85
  -4   6 -10    1.46    2.75
  -4   6 -10   -0.61    2.56
   4   6  10   -1.27    3.52
  -6  -6 -10  295.71   25.28
   6  -6  10  307.71   16.92
  -6  -6 -10  305.42   24.27
  -6   6 -10  312.94   13.80
   6   6  10  318.39   21.13
   8  -6  10    5.04    4.95
  -8  -6 -10    2.84    5.44
  -8  -6 -10   -0.66    4.97
   8   6  10    0.77    5.75
   8   6  10   -0.59    5.02
 -10  -6 -10  160.04   21.13
 -10  -6 -10  157.19   33.62
  10  -6  10  152.71   14.76
  10   6  10  160.88   19.00
  10   6  10  150.43   19.55
  12  -6  10   -3.77    4.25
  12   6  10    2.63    7.38
  12   6  10    2.37    7.05
  14  -6  10  220.60   21.60
  14   6  10  236.61   25.69
  16  -6  10    5.34    7.83
  16   6  10    3.29    8.47
  15   7 -10    9.52   10.07
  15   7 -10    7.79   11.38
  13   7 -10    1.33    7.76
  13   7 -10    8.25   10.34
  11  -7 -10   35.91    9.72
  11   7 -10   11.02    9.03
  11   7 -10    8.47    9.83
  11   7 -10    8.06    6.56
  -9  -7  10  109.02   15.70
   9   7 -10   98.34   13.67
   9   7 -10  111.01   25.62
  -7  -7  10   26.49   10.13
   7   7 -10   18.05   10.97
   7   7 -10   24.08    8.59
  -5  -7  10   94.85   13.35
   5   7 -10   93.39   10.87
   5   7 -10  111.64   15.93
  -3  -7  10   79.62   14.53
   3   7 -10   73.77   16.08
   3   7 -10   69.19    8.24
  -1  -7  10  193.94   15.33
   1   7 -10  183.48   11.97
   1   7 -10  171.77   16.90
   1  -7  10   52.31    9.62
  -1   7 -10   62.05   12.31
  -1   7 -10   44.41    5.96
   3  -7  10  181.44   12.37
  -3   7 -10  205.26   11.13
  -3   7 -10  197.39   14.88
  -5  -7 -10   91.61   16.87
  -5  -7 -10   58.92   14.57
   5   7  10   71.18   12.46
  -7  -7 -10   18.94    8.49
  -7  -7 -10   29.18   11.21
   7   7  10   31.19   12.37
   7   7  10   31.36   10.30
  -9  -7 -10  146.33   20.17
   9   7  10  164.27   20.49
   9   7  10  132.85   17.08
 -11  -7 -10   55.49   26.37
  11  -7  10   51.19   11.52
  11   7  10   32.08   12.32
  13   7  10   94.01   24.61
  13   7  10  128.81   25.40
  15  -7  10   44.10   15.27
  15   7  10   15.52   11.95
  16  -8 -10  134.14   19.45
  16   8 -10  151.03   36.08
  16   8 -10  101.54   29.08
  14  -8 -10    1.03    6.12
  14   8 -10   -0.84    6.07
  14   8 -10    5.00    8.05
  12  -8 -10    5.75    6.09
  12   8 -10    6.87    9.18
  12   8 -10   12.51   11.54
  10  -8 -10    2.27    4.02
  10   8 -10   -5.56    5.00
  10   8 -10    6.91    6.35
   8  -8 -10  121.41    9.33
   8   8 -10  101.90   21.36
   8   8 -10  142.54   16.04
   6  -8 -10    0.24    2.32
   6  -8 -10   -2.04    2.63
  -6  -8  10   -0.57    4.46
   6   8 -10   -1.41    3.81
   6   8 -10    2.38    4.87
  -4  -8  10  215.19   20.04
   4  -8 -10  226.76   17.30
   4  -8 -10  229.08   11.34
   4   8 -10  239.95   23.32
   4   8 -10  235.31   15.91
  -2  -8  10   -1.64    3.71
   2  -8 -10    2.55    2.62
   2  -8 -10   -0.27    3.37
   2   8 -10    2.87    3.48
   2   8 -10   -3.85    2.84
   0  -8 -10   88.84    9.70
   0  -8  10   82.86   10.19
   0  -8 -10   95.20   17.07
   0   8  10   83.44    5.41
   0   8 -10   93.15   16.93
   0   8 -10   77.02    7.52
  -2  -8 -10   -1.22    3.28
   2  -8  10    4.60    3.78
  -2  -8 -10   -2.33    3.77
   2   8  10    5.05    3.46
  -2   8 -10    1.35    4.07
  -2   8 -10    0.27    2.61
  -4  -8 -10  322.64   23.84
   4  -8  10  322.20   17.26
   4   8  10  344.34   19.55
  -4   8 -10  339.99   19.95
  -6  -8 -10    4.29    6.22
  -6  -8 -10    0.98    3.63
   6  -8  10    4.88    4.14
   6   8  10    5.86    5.95
   6   8  10   -0.86    5.28
  -8  -8 -10  320.07   28.68
   8  -8  10  349.71   19.67
  -8  -8 -10  349.88   31.67
   8   8  10  330.05   29.06
   8   8  10  337.45   24.73
  10  -8  10   -0.72    4.24
 -10  -8 -10   -0.37    7.01
  10   8  10   -3.97    3.54
  10   8  10    1.31    5.75
  12  -8  10  128.96   14.79
  12   8  10  127.04   25.03
  12   8  10  147.03   19.01
  14  -8  10   -1.06    5.53
  14   8  10    1.33    6.78
  14   8  10    5.54    8.29
  15  -9 -10   10.10   10.42
  15   9 -10   38.79   19.08
  15   9 -10   40.24   20.04
  13  -9 -10    5.24    6.41
  13   9 -10   -0.64    7.42
  13   9 -10    9.69   11.23
  11   9 -10   87.85   21.35
  11   9 -10   73.10   23.49
   9   9 -10   51.60   16.60
   9   9 -10   73.16   19.47
  -7  -9  10  113.92   16.16
   7   9 -10  124.61   14.18
   7   9 -10  104.68   21.06
   7   9 -10  125.17   27.18
  -5  -9  10   82.20   17.80
   5   9 -10   73.61    9.69
   5   9 -10   65.17   15.89
  -3  -9  10  119.24   14.69
  -3  -9  10   92.35   13.15
   3   9 -10  112.96   16.60
   3   9 -10  126.70   11.25
  -1  -9  10   28.77    8.70
   1  -9 -10   78.50   16.05
   1   9 -10   19.68    8.52
   1   9 -10   29.19    6.79
   1  -9  10   86.87   10.39
  -1  -9 -10   45.94   13.76
  -1   9 -10   89.74    7.58
  -1   9 -10   92.53   12.98
  -3  -9 -10  256.88   21.08
  -3  -9 -10  254.32   24.18
   3   9  10  253.05   15.05
  -5  -9 -10   73.62   16.26
  -5  -9 -10   69.96   19.17
   5   9  10   62.90   12.63
  -7  -9 -10  136.97   18.81
   7   9  10  107.20   13.68
   7   9  10  123.70   25.43
  -9  -9 -10   72.16   20.93
  -9  -9 -10   52.95   18.90
   9   9  10   37.62   13.45
   9   9  10   50.87   14.24
  11   9  10   34.95   12.08
  11   9  10   34.32   15.62
  13  -9  10   57.22   13.20
  13   9  10   13.27   12.49
  13   9  10   36.73   14.84
  15  -9  10    6.28    8.52
  15   9  10   45.13   16.81
  14 -10 -10  192.56   20.19
  14  10 -10  200.42   28.61
  12 -10 -10    1.68    4.73
  12  10 -10    2.86    8.52
  12  10 -10    2.11    7.47
  10 -10 -10  133.33   11.27
  10  10 -10  117.13   27.23
  10  10 -10  153.27   29.93
   8 -10 -10    0.47    3.38
   8 -10 -10    2.44    3.12
   8  10 -10   11.87    7.74
   8  10 -10    1.49    5.83
   8  10 -10    3.49    5.75
   6 -10 -10  254.85   11.47
   6 -10 -10  273.49   20.15
  -6 -10  10  290.33   25.96
   6  10 -10  264.26   28.34
   6  10 -10  235.13   23.07
   6  10 -10  251.05   19.04
   4 -10 -10    0.48    4.07
   4 -10 -10    5.26    3.18
  -4 -10  10    0.29    4.75
   4  10 -10    2.31    4.54
   4  10 -10   -2.78    4.74
   4  10 -10   -1.21    4.96
   2 -10 -10  320.33   24.50
  -2 -10  10  324.30   23.82
   2 -10 -10  347.21   18.03
   2  10 -10  329.32   17.55
   2  10 -10  340.83   28.23
   2  10 -10  330.68   22.05
   0 -10 -10    0.44    4.00
   0 -10  10    5.10    4.69
   0 -10 -10    4.26    4.05
   0  10 -10    5.54    3.17
   0  10 -10    5.69    5.86
   0  10 -10    4.08    3.96
  -2 -10 -10  444.57   27.31
   2 -10  10  482.04   23.93
  -2 -10 -10  399.13   30.88
  -2  10 -10  452.42   28.47
   2  10  10  463.69   17.93
   4 -10  10    2.07    3.94
  -4 -10 -10   10.30    7.23
  -4 -10 -10    0.56    6.62
   4  10  10    7.86    5.41
  -4  10 -10    2.14    4.34
   6 -10  10  270.09   16.52
  -6 -10 -10  229.60   23.39
   6  10  10  233.40   19.66
   6  10  10  207.48   23.41
  -8 -10 -10    2.78    7.36
   8 -10  10    8.49    5.64
   8  10  10    4.25    6.93
   8  10  10    2.38    5.33
  10 -10  10  141.42   13.32
  10  10  10  152.51   18.54
  10  10  10  152.46   22.07
  12 -10  10   -0.38    4.57
  12  10  10    7.17    7.87
  12  10  10   -1.20    7.65
  14 -10  10   75.88   16.19
  14  10  10   75.56   21.30
  14  10  10   75.38   24.78
  13 -11 -10    7.56    7.47
  13  11 -10    8.19   11.89
  13  11 -10   15.76   12.59
  11 -11 -10   45.22    9.00
  11  11 -10    3.97    7.89
  11  11 -10   15.11   10.11
   9  11 -10   75.34   16.82
   9  11 -10   70.07   20.67
   9  11 -10   60.47   18.03
  -7 -11  10   20.78   10.99
   7 -11 -10   52.60   11.54
   7  11 -10   17.62   10.25
   7  11 -10   17.10    7.90
   7  11 -10   28.82   12.29
  -5 -11  10  100.73   21.48
   5  11 -10   88.87   10.36
   5  11 -10  105.38   25.67
   5  11 -10  107.20   19.91
   3 -11 -10   70.67   15.80
  -3 -11  10   22.21    9.08
   3  11 -10   26.52    9.41
   3  11 -10   32.68   11.94
   3  11 -10   28.68    7.64
  -1 -11  10   99.23   13.61
   1  11 -10  120.78   11.59
   1  11 -10  120.90   23.05
   1  11 -10  109.82    9.14
  -1 -11 -10   59.85   14.91
   1 -11  10   19.28    7.53
  -1  11 -10   27.29   10.35
  -3 -11 -10   25.33   11.09
  -3 -11 -10   39.85   14.17
   3  11  10   30.28    6.72
   5 -11  10    6.52    4.26
  -5 -11 -10   14.72   11.98
  -5 -11 -10   31.82   12.29
   5  11  10   13.88    6.82
  -7 -11 -10   46.57   15.18
   7 -11  10   69.05    9.25
   7  11  10   48.80   16.11
   9 -11  10   34.87    7.81
   9  11  10   75.78   16.91
   9  11  10   52.88   18.76
  11 -11  10   42.48   10.17
  11  11  10    4.77    7.88
  11  11  10   24.26   12.97
  13 -11  10    7.98    6.68
  13  11  10   61.52   24.16
  13  11  10   30.64   12.49
  12 -12 -10   91.74   10.46
  12  12 -10   79.70   25.72
  12  12 -10  101.28   27.56
  10 -12 -10    4.63    3.65
  10  12 -10   14.52    9.78
  10  12 -10   12.14    9.32
   8 -12 -10   78.62    6.53
   8  12 -10  101.47   22.79
   8  12 -10  125.16   30.51
   6 -12 -10    4.64    5.58
   6 -12 -10    7.26    2.92
  -6 -12  10    3.57    6.73
   6  12 -10    2.43    5.02
   6  12 -10    4.04    7.28
   6  12 -10    7.81    7.48
   4 -12 -10  307.91   24.65
  -4 -12  10  283.22   26.62
   4 -12 -10  293.03   16.45
   4  12 -10  302.50   30.89
   4  12 -10  309.49   23.77
   4  12 -10  279.96   18.56
   2 -12 -10    8.35    5.02
   2 -12 -10    1.42    5.33
  -2 -12  10   -0.22    5.20
   2  12 -10    9.63    3.91
   2  12 -10    4.69    5.10
   2  12 -10    3.26    6.69
   0 -12 -10  369.25   30.48
   0 -12  10  327.86   24.33
   0 -12 -10  391.09   25.18
   0  12 -10  318.39   28.04
  -2 -12 -10    3.64    6.26
  -2 -12 -10   10.68    6.44
   2 -12  10   16.36    6.07
  -2  12 -10    2.23    5.23
  -4 -12 -10  163.09   19.65
  -4 -12 -10  135.62   27.70
   4 -12  10  141.94   13.40
   4  12  10  156.33   14.56
  -4  12 -10  170.45   16.88
   4  12  10  132.19   11.49
   6 -12  10    7.57    4.40
  -6 -12 -10    2.72    6.89
   6  12  10    2.16    5.22
   6  12  10   -1.59    5.91
   8 -12  10  158.42   13.29
   8  12  10  139.20   26.13
   8  12  10  148.52   17.88
  10 -12  10   10.09    5.00
  10  12  10    2.04    6.76
  10  12  10    2.47    8.90
  12 -12  10   79.16   14.48
  12  12  10   64.27   24.30
  12  12  10   87.29   21.78
  11  13 -10   69.51   22.07
  11  13 -10   43.57   16.60
   9  13 -10   45.49   16.20
   9  13 -10   17.77   13.87
   7 -13 -10   25.09    5.15
   7 -13 -10   27.68    9.85
   7  13 -10   42.24   17.03
   7  13 -10   63.24   13.53
   7  13 -10   69.35   17.24
   5 -13 -10  111.32   20.47
   5  13 -10   49.78   13.20
   5  13 -10   42.80    9.31
   5  13 -10   40.21   15.67
   3 -13 -10   69.77   17.10
  -3 -13  10  150.88   20.41
   3  13 -10  115.74   23.97
   3  13 -10  138.68   14.03
   3  13 -10  124.26   10.92
   1 -13 -10  105.35   22.64
  -1 -13  10   46.80   12.73
   1  13 -10   42.50    5.24
   1  13 -10   41.02   14.40
   1  13 -10   41.29    4.35
   1 -13  10   98.45   13.06
  -1 -13 -10   59.99   14.03
  -1  13 -10  106.84   21.39
  -3 -13 -10  100.74   21.26
  -3 -13 -10   75.33   20.98
   3  13  10   82.28    5.72
  -5 -13 -10   35.08   13.43
   5  13  10   31.63    7.94
   5  13  10   36.08    9.53
   7  13  10   45.17   12.42
   7  13  10   48.67   15.72
   9 -13  10   71.09    9.56
   9  13  10   28.98   18.78
   9  13  10   44.43   13.49
  11 -13  10   11.03    6.93
  11  13  10   34.04   14.68
  10  14 -10   85.81   29.78
  10  14 -10  104.11   24.36
   8 -14 -10   19.42    4.48
   8  14 -10    0.24    6.09
   8  14 -10    6.34    8.00
   8  14 -10    7.70    8.15
   6 -14 -10  197.09   13.57
   6 -14 -10  163.43   18.88
   6  14 -10  145.17   15.92
   6  14 -10  205.08   28.44
   6  14 -10  192.09   20.65
   4 -14 -10    2.67    5.15
   4 -14 -10    8.82    5.00
   4  14 -10    5.90    4.90
   4  14 -10    5.51    6.24
   4  14 -10   15.56    4.84
   2 -14 -10  184.95   22.86
   2 -14 -10  199.85   18.66
   2  14 -10  142.14   29.03
   2  14 -10  177.99   11.61
   0 -14 -10   10.00    6.81
   0 -14 -10    3.73    5.85
   0 -14  10   13.42    6.21
   0  14 -10    2.23    6.66
  -2 -14 -10  220.49   29.35
  -2 -14 -10  270.04   25.92
   2 -14  10  257.74   21.26
  -2  14 -10  278.24   25.97
  -4 -14 -10   10.67    9.52
   4 -14  10   14.73    5.55
   4  14  10    9.62    3.25
  -4  14 -10   -2.51    4.93
   6 -14  10  154.49   14.13
   6  14  10  103.14   19.08
   6  14  10  139.49   13.97
   8 -14  10   12.58    5.57
   8  14  10   14.08    9.32
   8  14  10    5.10    6.38
   8  14  10   11.82    9.45
  10 -14  10   80.79   13.65
  10  14  10   70.10   19.81
  10  14  10   52.78   18.29
   9  15 -10   51.88   16.83
   9  15 -10   32.89   15.92
   7 -15 -10   49.64    9.76
   7 -15 -10   41.57   12.11
   7  15 -10   23.83   10.08
   7  15 -10   21.94   14.90
   7  15 -10   16.61   10.55
   5 -15 -10    8.28    8.92
   5 -15 -10   29.89    9.98
   5  15 -10   34.26   10.48
   5  15 -10   58.28   21.43
   3 -15 -10   25.99   13.23
   3 -15 -10   28.96   11.18
   3  15 -10   13.64   11.29
   1 -15 -10   10.77    9.77
   1 -15 -10   15.22   10.78
   1  15 -10   40.20   16.34
   1 -15  10   12.15    7.99
  -1 -15 -10   41.95   15.06
  -1  15 -10   15.80   10.61
   3 -15  10   47.22   11.47
  -3 -15 -10   34.32   15.11
  -3  15 -10   60.14   15.96
   5 -15  10   23.25    7.81
   7 -15  10   51.36   11.54
   7  15  10   16.01    7.49
   9 -15  10   14.39    6.94
   9  15  10   32.03   12.29
   9  15  10    2.38    8.15
   8  16 -10   53.87   19.40
   8  16 -10   61.96   17.83
   6 -16 -10   -2.84    5.48
   6 -16 -10   -0.92    5.82
   6  16 -10   -2.16    4.28
   6  16 -10    2.81    7.36
   6  16 -10   -0.99    3.43
   4 -16 -10  134.51   25.25
   4 -16 -10  118.08   16.98
   4  16 -10  122.90   29.18
   2 -16 -10    7.02    8.06
   2 -16 -10    2.14    8.01
   2  16 -10    0.08    5.96
   0 -16 -10   98.51   25.02
   0  16 -10   83.36   22.22
  -2 -16 -10   -5.54    7.71
   2 -16  10    8.20    5.22
  -2  16 -10    4.34    6.73
   4 -16  10  140.82   16.70
  -4  16 -10  118.23   22.03
   6 -16  10   13.75    5.86
   6  16  10    0.25    2.91
   6  16  10   -0.52    2.18
   5 -17 -10   16.18   12.59
   5 -17 -10   47.56   16.02
   5  17 -10   28.19   16.12
   3 -17 -10   27.80   13.79
   3  17 -10   29.45   15.85
   1 -17 -10   44.37   16.54
   1  17 -10   18.95   12.52
  -1  17 -10   18.22   11.06
   3 -17  10   26.23   11.46
  -3  17 -10   10.35    9.08
  18   0 -11  131.67   31.17
  18   0 -11   93.33   21.76
  16   0 -11    5.69    6.47
  14   0 -11  291.93   26.85
  14   0 -11  325.97   27.58
  12   0 -11   -1.65    3.49
  12   0 -11   -1.94    5.05
  10   0 -11  415.60   26.43
  10   0 -11  407.67   28.17
   8   0 -11   -2.81    3.07
   8   0 -11    1.88    4.05
   6   0 -11  672.72   28.58
   6   0 -11  732.13   32.64
   4   0 -11   -0.87    3.08
  -4   0  11    0.16    3.52
   2   0 -11 9209.56  281.88
   2   0 -11 8797.19  735.97
  -2   0  11 9999.00  311.30
  -2   0  11 8449.84  724.54
   0   0 -11   10.98    3.96
   0   0  11    7.79    3.65
   2   0  11 3021.07  146.45
  -2   0 -11 2655.45  147.40
  -2   0 -11 3151.68  420.88
   2   0  11 3738.50  463.69
   4   0  11    1.32    3.64
  -4   0 -11   -0.10    3.64
  -6   0 -11 2266.76   68.82
  -6   0 -11 2338.03   68.09
   6   0  11 2436.49   66.94
  -8   0 -11    4.08    4.65
  -8   0 -11    1.65    5.18
   8   0  11    2.81    5.29
 -10   0 -11  391.47   26.64
  10   0  11  386.85   26.70
 -10   0 -11  439.12   29.42
 -12   0 -11    1.99    5.91
  12   0  11    4.04    6.74
 -14   0 -11  148.60   19.34
  14   0  11  199.58   22.22
 -16   0 -11   -3.15    3.93
  16   0  11    0.30    6.58
  17  -1 -11   12.68   12.34
  17  -1 -11   12.42    9.14
  17   1 -11   40.94   16.12
  17   1 -11   46.17   18.76
  15  -1 -11   99.24   21.21
  15   1 -11   40.41   13.87
  13  -1 -11   28.38   11.17
  13  -1 -11   28.89   11.13
  13   1 -11   62.65   17.49
  13   1 -11   57.52   16.16
  11  -1 -11   83.01   17.19
  11  -1 -11   82.19   17.04
   9  -1 -11   63.12   13.24
   9  -1 -11   77.76   14.17
   7  -1 -11  140.43   13.72
   7  -1 -11  118.27   11.79
   5   1 -11  449.71   24.89
   5   1 -11  424.68   21.19
  -3  -1  11  243.32   15.64
   3   1 -11  222.00   13.26
  -1  -1  11  417.80   19.00
   1   1 -11  396.85   17.58
   1  -1  11   57.35    7.18
  -1   1 -11   61.08    7.38
   3  -1  11  525.51   21.77
  -3   1 -11  511.75   23.13
  -5  -1 -11   52.57   11.90
  -5  -1 -11   49.27   11.61
  -5   1 -11   25.88    7.75
   5   1  11   43.82    9.40
   7  -1  11   73.89   10.40
  -7   1 -11   79.70   10.18
  -7   1 -11   85.92   15.65
   9  -1  11   73.39   15.53
  -9   1 -11   82.47   11.60
  -9   1 -11   81.57   15.92
 -11  -1 -11   20.17    8.72
 -11  -1 -11   26.79   11.05
  11  -1  11   59.86   15.35
  11   1  11   15.66    9.06
 -11   1 -11   53.76   13.81
  13  -1  11   56.87   15.62
 -13  -1 -11  100.71   20.59
 -13   1 -11   50.02   12.82
  13   1  11  137.14   24.74
  15  -1  11   74.66   18.18
 -15  -1 -11   27.78   13.46
  15   1  11   10.97    9.74
 -15   1 -11   25.28   11.01
  17  -1  11    8.07   10.59
 -17   1 -11    0.53    4.54
  17   1  11   20.35   14.40
  16  -2 -11   98.24   20.73
  16   2 -11  141.54   29.51
  16   2 -11  117.73   25.75
  14  -2 -11    0.66    4.75
  14  -2 -11    2.40    7.61
  14   2 -11   -2.41    4.12
  12  -2 -11  146.31   16.47
  12  -2 -11  157.34   17.21
  12   2 -11  122.16   16.55
  12   2 -11  126.63   17.77
  10  -2 -11    3.81    5.13
  10  -2 -11    0.54    4.81
  10   2 -11   -2.95    2.83
  10   2 -11    1.80    5.84
   8  -2 -11  272.49   19.16
   8  -2 -11  251.33   17.76
   8   2 -11  251.39   21.98
   8   2 -11  269.16   19.95
   6  -2 -11   -1.18    2.63
   6   2 -11    1.09    3.74
   6   2 -11   -1.32    3.12
  -4  -2  11 2534.60   69.22
   4  -2 -11 2348.20   59.59
   4   2 -11 2493.29   71.03
   4   2 -11 2397.38   63.25
   2  -2 -11    8.06    3.78
  -2  -2  11    2.22    3.66
  -2   2  11    9.65    4.17
   2   2 -11    1.83    3.15
   0  -2 -11 1116.25   34.14
   0  -2  11 1115.89   34.75
   0   2 -11 1126.10   34.00
   0   2  11 1130.53   33.08
  -2  -2 -11    3.64    4.07
   2  -2  11    2.12    3.61
   2   2  11    6.59    4.14
  -2   2 -11    1.15    3.03
   4  -2  11 1343.98   39.74
  -4  -2 -11 1242.25   44.90
  -4  -2 -11 1275.67   44.30
  -4   2 -11 1184.03   40.19
   4   2  11 1288.39   40.87
  -6  -2 -11    0.35    3.26
   6  -2  11    5.70    4.68
  -6  -2 -11    1.46    4.16
   6   2  11   -0.17    3.52
  -6   2 -11   -3.58    3.09
  -8  -2 -11  985.23   45.27
  -8  -2 -11  947.39   44.82
   8  -2  11 1025.19   40.35
   8   2  11 1010.56   42.87
  -8   2 -11 1014.56   38.63
  -8   2 -11 1024.53   41.35
 -10  -2 -11    0.99    5.67
  10  -2  11   -0.95    4.66
 -10  -2 -11   -0.47    4.03
 -10   2 -11    3.66    6.01
 -10   2 -11    5.05    4.38
  10   2  11   -1.17    5.20
  12  -2  11  109.55   19.53
 -12  -2 -11  126.06   18.02
 -12   2 -11  126.73   14.26
  12   2  11  113.41   20.98
 -14  -2 -11    1.04    5.49
  14  -2  11    2.55    6.65
 -14   2 -11    1.95    5.35
  14   2  11   -5.96    4.65
  16  -2  11   98.30   21.19
  16   2  11  125.81   25.12
  17  -3 -11   24.25   10.98
  17   3 -11    9.23   12.78
  17   3 -11   22.70   11.93
  15  -3 -11   18.27    8.74
  15  -3 -11   35.42   13.86
  15   3 -11   60.41   19.19
  13  -3 -11    6.62    6.39
  13  -3 -11   -1.42    5.16
  13   3 -11   -2.53    4.90
  13   3 -11    9.04    7.81
  11  -3 -11   23.17    8.72
  11  -3 -11   29.01    9.12
  11   3 -11   69.78   20.08
  11   3 -11   77.24   16.25
   9  -3 -11  186.17   15.40
   9  -3 -11  185.67   16.03
   7   3 -11  179.27   18.29
   7   3 -11  146.69   14.36
   5   3 -11  123.97   14.09
   5   3 -11  143.57   12.55
  -3  -3  11  154.99   13.46
   3   3 -11  138.11   10.83
   3   3 -11  132.87   13.38
   1  -3 -11   61.80    7.06
  -1   3  11   64.99    6.70
   1  -3  11   95.34    8.88
  -1   3 -11   79.53    8.04
  -3  -3 -11  582.30   27.14
  -3  -3 -11  566.28   28.56
   3   3  11  668.27   25.31
  -5  -3 -11   68.92   13.03
  -5  -3 -11   47.10   11.15
   5   3  11   71.22   12.77
   7  -3  11   37.66    9.42
  -7   3 -11   53.40   11.48
  -7   3 -11   57.57    8.08
   9  -3  11  158.75   15.61
  -9   3 -11  190.87   16.66
  -9   3 -11  177.54   14.46
  11  -3  11    4.64    5.92
 -11  -3 -11   22.72   11.53
 -11  -3 -11   16.24    8.51
  11   3  11   24.49   10.87
 -11   3 -11    6.94    5.14
 -13  -3 -11   42.04   13.99
  13  -3  11   77.76   16.64
  13   3  11   15.93   10.05
  15  -3  11   10.44    9.66
  15   3  11   42.51   13.84
  17  -3  11   34.13   15.19
  17   3  11   12.58   13.72
  16  -4 -11   11.50    7.80
  16   4 -11    5.30    9.09
  16   4 -11   -3.40    6.60
  14  -4 -11  265.76   23.41
  14  -4 -11  276.22   23.56
  14   4 -11  260.32   29.64
  12  -4 -11   -3.12    3.71
  12  -4 -11    4.22    4.70
  12   4 -11    3.83    7.14
  12   4 -11   -1.58    5.14
  10  -4 -11  855.29   36.46
  10  -4 -11  808.36   35.17
  10   4 -11  835.73   41.85
  10   4 -11  789.63   46.90
   8  -4 -11    2.59    3.97
   8   4 -11    0.32    4.14
   8   4 -11   -2.09    4.11
   6  -4 -11   70.49    7.70
   6   4 -11   70.61   14.55
   6   4 -11   69.47    9.66
  -4  -4  11    1.59    4.69
   4  -4 -11   10.07    3.90
   4   4 -11    1.64    3.70
   4   4 -11    2.44    4.15
  -2  -4  11  482.38   23.95
   2  -4 -11  502.44   19.16
   2   4 -11  480.37   25.85
   2   4 -11  478.99   20.57
  -2   4  11  477.93   18.11
   0  -4  11    2.80    3.61
   0  -4 -11    0.13    2.49
   0   4  11   -0.12    2.59
   0   4 -11    0.01    2.85
  -2  -4 -11  408.15   21.62
  -2  -4 -11  397.79   23.69
   2  -4  11  451.87   19.98
  -2   4 -11  429.03   19.29
   2   4  11  427.29   18.74
  -4  -4 -11   -0.54    3.24
  -4  -4 -11    1.67    4.14
   4  -4  11    2.80    3.68
  -4   4 -11    0.84    3.34
   4   4  11   -0.86    3.16
  -6  -4 -11  416.27   27.11
  -6  -4 -11  377.15   26.92
   6  -4  11  480.79   22.56
  -6   4 -11  454.15   22.63
   6   4  11  450.83   25.06
  -8  -4 -11    3.81    4.27
   8  -4  11    0.12    4.24
  -8  -4 -11    5.57    7.29
  -8   4 -11    0.10    4.53
   8   4  11   -1.75    4.14
  -8   4 -11    6.86    3.47
 -10  -4 -11  169.27   20.02
 -10  -4 -11  158.18   19.86
  10  -4  11  129.27   14.76
  10   4  11  164.11   18.56
 -12  -4 -11    0.43    5.49
  12  -4  11   -2.97    4.66
  12   4  11    2.83    6.82
  14  -4  11  191.89   20.99
 -14  -4 -11  220.15   40.22
  14   4  11  172.67   21.93
  16  -4  11    6.88    9.21
  16   4  11    8.49    9.08
  17   5 -11   19.12   13.19
  17   5 -11   27.98   16.21
  15  -5 -11   52.29   15.12
  15   5 -11    6.13   11.24
  15   5 -11    9.93   10.63
  13  -5 -11    6.40    6.85
  13  -5 -11   13.82    6.76
  13   5 -11   29.83   12.99
  11  -5 -11   18.65    7.25
  11  -5 -11   10.43    7.15
  11   5 -11    2.58    8.34
   9  -5 -11   43.60    9.34
   9   5 -11   49.64   15.05
   9   5 -11   61.85   13.31
   7  -5 -11   30.15    7.29
   7   5 -11   13.61    6.88
   7   5 -11    9.04    7.27
   5   5 -11  151.78   17.13
   5   5 -11  146.26   13.21
  -3  -5  11   83.03   14.72
   3   5 -11   69.49    8.23
   3   5 -11   82.38   16.37
  -1  -5  11  184.93   14.27
   1   5 -11  157.98   11.32
   1   5 -11  150.73   14.49
  -1  -5 -11  128.34   11.57
  -1  -5 -11  116.29   12.86
   1   5  11  144.21    9.96
  -3  -5 -11   91.87   11.21
  -3  -5 -11  101.30   12.73
   3   5  11   82.94    9.07
  -5  -5 -11   41.12   11.42
  -5  -5 -11   38.56   10.50
   5   5  11   55.23   11.49
  -7  -5 -11   27.37    9.70
  -7  -5 -11   36.62   12.19
   7   5  11   19.68    7.74
  -9  -5 -11  205.55   22.17
  -9  -5 -11  186.72   21.64
   9   5  11  196.58   19.41
 -11  -5 -11   11.00    8.03
  11   5  11   17.79    9.78
 -13  -5 -11  103.03   26.62
  13   5  11  111.83   21.90
  15  -5  11   42.81   13.92
  15   5  11   12.64   10.48
  16   6 -11  112.82   29.92
  16   6 -11   94.71   28.46
  14  -6 -11    1.33    6.68
  14   6 -11    1.97    8.00
  14   6 -11   -1.51    6.59
  12  -6 -11  357.21   22.77
  12  -6 -11  379.51   24.11
  12   6 -11  382.41   35.12
  10  -6 -11    0.92    2.98
  10  -6 -11    0.08    4.17
  10   6 -11    2.21    6.72
   8  -6 -11   99.26    9.60
   8   6 -11  107.08   23.66
   8   6 -11   86.28   12.14
   6  -6 -11    0.48    2.59
   6   6 -11    2.68    3.75
   6   6 -11   -1.44    3.61
   4  -6 -11  224.10   11.44
  -4  -6  11  211.83   18.60
   4   6 -11  190.52   14.39
   4   6 -11  189.83   19.51
  -2  -6  11    0.79    3.71
   2  -6 -11    1.95    2.58
   2   6 -11   -0.27    2.96
   2   6 -11   -0.87    3.55
   0  -6 -11  163.39   12.17
   0  -6 -11  164.15   15.57
   0  -6  11  167.96   13.47
   0   6 -11  141.87   10.55
   0   6 -11  157.90   14.79
   0   6  11  180.83   10.07
  -2  -6 -11    1.12    4.34
   2  -6  11    1.36    3.18
  -2  -6 -11   -1.77    2.99
   2   6  11   -0.17    2.77
  -2   6 -11    4.29    3.17
  -2   6 -11   -0.65    2.69
  -4  -6 -11   46.43   12.85
   4  -6  11   63.26    7.81
  -4  -6 -11   60.32   13.92
  -4   6 -11   53.75    9.03
  -4   6 -11   52.98    9.65
   4   6  11   66.75   11.33
  -6  -6 -11   -2.70    4.02
   6  -6  11   -0.15    2.92
  -6  -6 -11    2.00    4.16
   6   6  11   -0.77    4.17
  -6   6 -11    0.55    2.98
  -8  -6 -11  188.71   21.53
   8  -6  11  207.39   15.75
  -8  -6 -11  177.13   20.26
   8   6  11  180.80   18.20
 -10  -6 -11    2.14    5.98
  10  -6  11    5.19    5.77
  10   6  11   -1.59    4.73
  12  -6  11  212.54   19.04
 -12  -6 -11  211.81   26.85
  12   6  11  197.41   22.16
  14  -6  11    3.68    6.44
  14   6  11    6.22    7.70
  16  -6  11   88.77   20.79
  16   6  11   79.90   24.03
  15  -7 -11   18.21   11.28
  15   7 -11   51.64   20.39
  15   7 -11   39.47   17.54
  13  -7 -11   10.21    7.96
  13   7 -11   -2.10    6.39
  13   7 -11    0.08    7.99
  11  -7 -11   16.16    6.80
  11   7 -11   57.44   21.30
  11   7 -11   35.58   12.92
  -9  -7  11   20.33    8.03
   9  -7 -11   44.15    8.83
   9   7 -11   27.08   11.90
   9   7 -11   20.05    9.07
   7  -7 -11   10.28    4.39
   7   7 -11   26.21    9.50
   7   7 -11   19.82   10.16
   5   7 -11   37.11   12.77
   5   7 -11   38.41    9.66
  -3  -7  11  149.18   15.50
   3   7 -11  133.33   16.49
   3   7 -11  160.30   12.38
   1  -7 -11   95.57    9.11
   1  -7 -11   97.05   12.15
  -1   7  11   88.25    5.64
   1   7 -11   46.71   12.71
  -1  -7 -11   49.13   12.74
   1  -7  11   88.23    9.90
  -1   7 -11   94.66   11.76
  -1   7 -11   91.96    8.31
   3  -7  11   54.44    7.57
  -3   7 -11   61.93    6.86
  -3   7 -11   72.09    9.70
   5  -7  11   25.18    6.91
  -5  -7 -11    9.22    7.42
  -5   7 -11   29.03    5.46
  -5   7 -11   24.03    6.66
  -7  -7 -11   71.42   17.33
  -7  -7 -11   80.50   19.24
   7   7  11   79.89   15.84
  -9  -7 -11   61.38   18.21
   9   7  11   60.40   14.52
  11  -7  11   23.75    8.33
 -11  -7 -11   40.34   16.00
  11   7  11   48.01   14.26
  13  -7  11   91.56   18.12
  15  -7  11   12.41    9.70
  15   7  11   28.06   15.35
  16  -8 -11   -2.51    8.69
  16   8 -11    8.34   10.85
  16   8 -11    4.66    8.35
  14  -8 -11  142.73   17.47
  14   8 -11   94.35   25.87
  14   8 -11  181.06   38.21
  12  -8 -11    1.75    4.99
  12   8 -11    2.82    6.35
  12   8 -11    2.84    7.46
 -10  -8  11  380.70   34.16
  10  -8 -11  403.79   21.10
  10   8 -11  412.20   34.79
  10   8 -11  326.65   33.40
   8  -8 -11    1.40    3.09
   8   8 -11    2.07    4.49
   8   8 -11   -2.27    3.89
  -6  -8  11   48.10   14.38
   6  -8 -11   69.67   12.77
   6  -8 -11   44.82    5.56
   6   8 -11   46.99   14.48
   6   8 -11   39.86   10.06
   4  -8 -11    3.16    2.79
   4  -8 -11    2.85    3.70
   4   8 -11   -2.01    3.70
   4   8 -11    0.27    3.71
   2  -8 -11  145.88   10.68
  -2  -8  11  153.18   15.51
   2  -8 -11  149.41   15.41
   2   8 -11  133.55   11.20
   2   8 -11  149.07   17.57
   0  -8 -11    3.41    5.52
   0  -8  11    1.27    3.30
   0  -8 -11    2.46    3.23
   0   8 -11    2.27    2.95
   0   8 -11    4.44    4.61
   0   8  11    1.06    2.00
  -2  -8 -11  207.35   17.14
   2  -8  11  206.08   14.51
  -2  -8 -11  201.93   19.99
  -2   8 -11  210.93   12.14
  -2   8 -11  195.29   17.19
   2   8  11  211.80   12.61
   4  -8  11    3.26    3.95
  -4  -8 -11    3.97    5.13
  -4  -8 -11    2.70    4.78
   4   8  11   -1.68    3.64
  -4   8 -11    1.66    4.00
  -6  -8 -11  227.44   24.22
  -6  -8 -11  242.42   23.33
   6  -8  11  252.41   15.86
   6   8  11  269.89   19.98
  -8  -8 -11    6.16    5.48
   8  -8  11    1.89    4.59
  -8  -8 -11    5.76    6.80
   8   8  11   -4.48    3.29
  10  -8  11  106.58   11.98
 -10  -8 -11  120.29   28.16
  10   8  11   82.07   18.45
  10   8  11   88.82   20.95
  12  -8  11    7.50    7.00
  12   8  11   -1.80    5.70
  14  -8  11   98.11   14.14
  14   8  11   90.21   22.28
  15  -9 -11   56.96   15.64
  15   9 -11   23.50   15.12
  15   9 -11   22.73   14.46
  13  -9 -11    7.08    6.82
  13   9 -11   -0.87    7.43
  13   9 -11   15.58   10.39
  11  -9 -11   46.68   10.52
  11   9 -11    8.99   10.61
  11   9 -11   28.78   12.95
   9  -9 -11   57.80    8.09
   9  -9 -11   49.08    6.63
   9   9 -11  118.62   24.06
   9   9 -11  137.38   29.31
  -7  -9  11   29.99   11.17
   7   9 -11   68.78   14.41
   7   9 -11   46.79   16.74
  -5  -9  11  183.09   19.73
   5   9 -11  201.19   23.30
   5   9 -11  182.44   14.81
   3  -9 -11   99.68   12.56
  -3  -9  11   57.32   13.87
   3   9 -11   40.62   13.63
   3   9 -11   63.88   11.00
  -1  -9  11   56.71   12.87
   1   9 -11   54.38    9.04
   1   9 -11   54.03   14.41
   1  -9  11   53.50   10.91
  -1   9 -11   53.54   12.85
  -1   9 -11   39.91    7.06
  -3  -9 -11  105.56   20.52
  -3  -9 -11  102.72   13.66
   3   9  11   76.11    9.02
  -5  -9 -11  121.39   17.58
  -5  -9 -11  138.61   17.05
   5   9  11  127.58   13.52
  -7  -9 -11   43.63   14.71
   7   9  11   27.45    9.65
  -9  -9 -11  133.78   31.29
  -9  -9 -11  149.77   35.20
   9   9  11  132.86   27.14
   9   9  11  113.68   15.51
  11  -9  11   24.53    8.38
  11   9  11    5.00    7.44
  11   9  11    7.74    9.09
  13  -9  11   15.44    8.27
  13   9  11   40.56   14.61
  15  -9  11   21.50   11.70
  15   9  11   -1.28    6.91
  14 -10 -11   -3.37    5.20
  14  10 -11   16.81   10.79
  14  10 -11   10.42    9.32
  12 -10 -11   84.70   11.18
  12  10 -11   63.37   19.92
  12  10 -11   91.73   24.33
  10 -10 -11    3.15    4.07
  10  10 -11   -0.66    3.85
  10  10 -11    6.41    8.60
   8 -10 -11  163.50   10.06
  -8 -10  11  178.72   22.91
   8 -10 -11  173.12   15.37
   8  10 -11  195.33   37.35
   8  10 -11  141.80   16.91
   8  10 -11  183.30   21.75
  -6 -10  11    5.93    6.97
   6 -10 -11    4.05    4.99
   6 -10 -11    3.64    2.73
   6  10 -11    5.80    5.51
   6  10 -11    5.01    5.39
   4 -10 -11  671.30   24.22
   4 -10 -11  741.33   37.16
  -4 -10  11  729.17   40.62
   4  10 -11  670.82   37.06
   4  10 -11  728.54   31.07
   4  10 -11  674.87   43.53
   2 -10 -11    8.31    4.05
  -2 -10  11    5.74    5.33
   2 -10 -11   -1.48    3.59
   2  10 -11    8.17    4.34
   2  10 -11   -3.57    3.64
   2  10 -11    4.66    6.21
   0 -10 -11  424.36   23.78
   0 -10 -11  430.26   31.39
   0 -10  11  458.55   26.18
   0  10 -11  446.42   23.04
   0  10 -11  464.68   31.50
   0  10 -11  445.05   18.77
   2 -10  11    7.96    5.48
  -2 -10 -11    1.48    6.20
  -2 -10 -11   13.64    7.60
   2  10  11    3.60    3.55
  -2  10 -11    0.50    4.77
  -4 -10 -11  519.99   38.04
  -4 -10 -11  564.37   35.20
   4 -10  11  556.70   25.36
  -4  10 -11  649.05   31.79
   4  10  11  546.00   25.48
  -6 -10 -11    9.41    7.61
   6 -10  11    4.70    4.92
   6  10  11    4.26    5.88
  -8 -10 -11  430.52   39.56
   8 -10  11  428.49   22.21
   8  10  11  366.21   33.71
   8  10  11  385.66   27.44
  10 -10  11    2.10    4.36
  10  10  11    4.03    5.86
  10  10  11    3.20    6.01
  12 -10  11   69.90   13.72
  12  10  11   90.05   21.45
  14 -10  11    2.68    6.10
  14  10  11    0.79    7.80
  13 -11 -11   39.80   11.61
  13  11 -11    2.12    8.98
  13  11 -11    6.15   11.81
  11  11 -11   28.90   14.90
  11  11 -11   31.59   16.38
   9 -11 -11   52.50    6.10
   9  11 -11   34.68   12.09
   9  11 -11   14.18   10.69
   7 -11 -11   18.03    3.99
   7 -11 -11   21.75    8.84
  -7 -11  11   37.93   14.35
   7  11 -11   49.26   14.70
   7  11 -11   39.09   13.86
   7  11 -11   25.53    9.29
   5 -11 -11   98.50   13.55
  -5 -11  11   69.46   17.96
   5  11 -11   57.48    8.37
   5  11 -11   56.54   14.21
   5  11 -11   42.74   17.20
   3 -11 -11   44.11   11.52
   3 -11 -11   46.02    6.59
   3  11 -11   89.26   20.35
  -1 -11  11   69.30   15.26
   1  11 -11   46.73    6.65
   1  11 -11   60.48   11.72
   1  11 -11   76.75   18.46
   1 -11  11   70.66   13.50
  -1 -11 -11   40.11   10.61
  -1  11 -11   65.77    5.52
  -1  11 -11   50.57   13.48
  -3 -11 -11   92.65   22.39
  -3 -11 -11  117.27   21.22
   3  11  11   86.75    8.42
  -5 -11 -11    9.97   10.00
  -5 -11 -11   37.53   12.97
   5 -11  11   40.77    9.06
  -5  11 -11   43.29   10.56
  -7 -11 -11   36.88   15.34
   7  11  11   54.75   13.89
   9 -11  11   68.96    9.42
   9  11  11   42.97   12.66
   9  11  11   42.09   15.41
  11  11  11   34.89   16.24
  11  11  11   35.73   12.74
  13 -11  11   48.97   12.52
  13  11  11   17.69   11.60
  12 -12 -11    2.17    4.80
  12  12 -11    1.72    6.71
  12  12 -11   13.03    9.99
  10 -12 -11  106.00    8.68
  10  12 -11  103.76   30.46
  10  12 -11  112.93   25.96
   8 -12 -11   -0.66    4.04
   8 -12 -11    7.03    3.00
   8  12 -11    3.62    8.97
   8  12 -11    2.16    7.63
   6 -12 -11  126.74   15.60
  -6 -12  11  130.22   31.10
   6 -12 -11  116.25    8.87
   6  12 -11  104.95   23.29
   6  12 -11  127.07   17.80
   6  12 -11  141.63   15.24
  -4 -12  11   10.52    8.80
   4 -12 -11   18.05    4.87
   4 -12 -11    2.40    5.79
   4  12 -11    6.13    5.78
   4  12 -11   19.05    5.45
   4  12 -11    3.81    6.72
  -2 -12  11  604.29   36.44
   2 -12 -11  654.09   30.28
   2  12 -11  648.63   31.68
   2  12 -11  632.23   25.20
   2  12 -11  639.64   43.23
   0 -12 -11   -1.02    4.87
   0 -12 -11    3.82    6.12
   0 -12  11    8.73    6.37
   0  12 -11    3.16    3.15
   0  12 -11    4.79    7.68
  -2 -12 -11  337.98   31.43
  -2 -12 -11  374.17   27.61
   2 -12  11  332.50   22.38
  -2  12 -11  353.78   27.84
   4 -12  11    6.89    5.14
  -4 -12 -11    3.08    6.11
  -4 -12 -11   10.37    7.85
  -4  12 -11    5.59    5.00
   4  12  11    1.15    3.49
   6 -12  11  276.75   18.04
  -6 -12 -11  304.94   29.74
   6  12  11  288.95   20.81
   8 -12  11   12.97    5.18
   8  12  11   13.28    8.44
  10 -12  11  130.48   13.23
  10  12  11  156.97   28.92
  10  12  11  130.52   27.40
  12 -12  11    6.42    6.01
  12  12  11    2.60    8.14
  11  13 -11    0.62    7.62
  11  13 -11    6.67   11.90
   9  13 -11   56.84   17.51
   9  13 -11   61.72   23.72
   7 -13 -11   54.70   14.20
   7  13 -11   12.45    9.21
   7  13 -11   23.30    8.87
   7  13 -11   24.95   13.79
   5 -13 -11   59.50    7.75
   5 -13 -11   52.71   14.45
   5  13 -11   87.52   23.63
   3  13 -11   86.74   11.72
   3  13 -11   67.06    8.29
   3  13 -11   48.54   15.88
  -1 -13  11   77.10   16.99
   1  13 -11   84.02    8.04
   1  13 -11   83.57    6.93
   1  13 -11   74.55   18.66
   1 -13  11   61.11   13.15
  -1 -13 -11  140.99   27.49
  -1  13 -11   54.32   14.36
  -3 -13 -11   48.00   14.46
  -3 -13 -11   25.65   12.48
  -3  13 -11  112.34   21.64
   3  13  11   57.03    5.39
   3  13  11   43.31    4.48
   5 -13  11   29.84    8.50
  -5 -13 -11   79.68   20.60
   5  13  11   49.90   11.92
   5  13  11   63.61   11.13
   7 -13  11   49.59   10.53
   7  13  11   19.86    8.70
   9 -13  11   34.86    8.23
   9  13  11   69.66   15.83
  11 -13  11   37.99   10.21
  11  13  11   15.94   11.01
  10 -14 -11   12.39    3.72
  10  14 -11    9.71   13.70
  10  14 -11   10.01    8.77
   8 -14 -11  109.70    8.99
   8  14 -11  104.53   20.46
   8  14 -11  117.95   32.43
   8  14 -11  108.62   23.54
   6 -14 -11    6.32    6.08
   6 -14 -11   21.54    5.73
   6  14 -11   -0.47    5.03
   6  14 -11   10.67    6.94
   6  14 -11    6.10    7.33
   4 -14 -11  251.65   19.12
   4 -14 -11  225.02   23.80
   4  14 -11  237.40   20.50
   4  14 -11  259.34   31.03
   4  14 -11  246.41   17.28
   2 -14 -11    7.58    6.25
   2 -14 -11    9.82    8.10
   2  14 -11    7.32    6.73
   2  14 -11    2.45    2.33
   2  14 -11    4.97    4.29
   0 -14  11  242.04   23.06
   0 -14 -11  197.65   24.73
   0 -14 -11  234.74   22.11
   0  14 -11  225.39   25.76
   2 -14  11   10.07    4.53
  -2 -14 -11   13.20    8.76
  -2  14 -11    4.29    7.11
  -4 -14 -11  291.42   33.40
   4 -14  11  248.17   19.75
  -4  14 -11  267.56   23.26
   6 -14  11   13.14    5.57
   6  14  11   -0.04    4.37
   6  14  11    7.33    5.59
   8 -14  11  191.40   15.87
   8  14  11  169.63   24.56
   8  14  11  195.53   20.32
  10 -14  11   15.40    5.42
  10  14  11    1.49    6.66
   9  15 -11    9.08   12.79
   9  15 -11   18.52   13.01
   7 -15 -11   14.10    6.64
   7 -15 -11    2.25    6.64
   7  15 -11   19.71   14.42
   7  15 -11   23.37   11.57
   5 -15 -11   46.87   15.63
   5 -15 -11   61.44   12.79
   5  15 -11   25.62   14.78
   5  15 -11   22.94    9.35
   3 -15 -11    9.87    9.14
   3 -15 -11   19.28    9.67
   3  15 -11   43.75   17.30
   1 -15 -11   11.23    9.98
   1 -15 -11   46.31   14.53
   1  15 -11    7.09    9.75
   1 -15  11   39.82   11.79
  -1 -15 -11   32.73   14.27
  -1  15 -11   19.23   12.24
  -3 -15 -11   34.63   21.07
   3 -15  11   34.92   10.96
  -3  15 -11   36.75   11.55
   5 -15  11   56.18   12.85
   7 -15  11   37.50    9.61
   7  15  11   37.27   10.61
   9 -15  11   37.86   10.49
   9  15  11   21.23    9.89
   6 -16 -11   31.14   13.01
   6 -16 -11   54.96   13.34
   6  16 -11   31.50   15.36
   4 -16 -11    3.97    6.31
   4 -16 -11    4.61    9.53
   4  16 -11    2.22    9.62
   4  16 -11   -0.40    2.42
   4  16 -11   -0.58    2.62
   2 -16 -11  103.14   21.54
   2  16 -11   74.00   22.67
   0 -16 -11    5.57    9.28
   0  16 -11    3.32    7.44
   2 -16  11   82.66   18.65
  -2  16 -11   91.53   21.19
   4 -16  11   11.64    5.80
  -4  16 -11    1.75    5.37
   6 -16  11   77.60   15.13
   5 -17 -11    6.72    8.74
   5  17 -11    0.87    3.18
   5  17 -11   14.16   14.76
   3 -17 -11   46.16   16.60
   3  17 -11   -1.16    7.82
   1 -17 -11    3.14   10.25
   1  17 -11   38.60   16.50
  -1  17 -11    7.38    8.43
   3 -17  11   36.88   14.03
  -3  17 -11   27.47   11.35
  16   0 -12    1.98    6.62
  14   0 -12    2.69    5.43
  14   0 -12    2.75    8.33
  12   0 -12   84.53   18.48
  12   0 -12   73.04   17.59
  10   0 -12    4.32    5.12
  10   0 -12   -2.00    4.04
   8   0 -12  174.21   15.51
   8   0 -12  212.65   18.53
   6   0 -12    1.44    3.51
   4   0 -12  408.53   19.39
  -4   0  12  421.59   22.01
  -2   0  12    4.31    4.35
   2   0 -12   -1.91    3.10
   0   0 -12  377.89   17.91
   0   0  12  392.05   18.10
  -2   0 -12   -0.04    3.67
   2   0  12   -2.15    2.97
   4   0  12  968.69   33.85
  -4   0 -12  956.67   36.44
   6   0  12    0.86    4.28
  -6   0 -12    0.53    3.87
  -6   0 -12   -0.11    3.15
  -8   0 -12  821.58   39.57
  -8   0 -12  859.89   39.12
   8   0  12  866.74   38.02
  10   0  12    4.41    5.92
 -10   0 -12    4.28    4.64
 -10   0 -12    2.97    6.33
  12   0  12  440.64   31.25
 -12   0 -12  437.00   30.68
  14   0  12   12.27    9.51
 -14   0 -12    1.19    5.38
  16   0  12   82.23   19.58
  17  -1 -12   28.75   12.89
  17   1 -12    0.96    7.83
  17   1 -12   16.88   13.17
  15  -1 -12   39.02   13.22
  15   1 -12   69.54   19.54
  13  -1 -12   60.53   15.74
  13  -1 -12   31.74   11.18
  13   1 -12   11.74    9.37
  13   1 -12   11.80    9.16
  11  -1 -12   47.51   12.31
  11  -1 -12   24.16    9.70
  11   1 -12   78.99   16.89
  11   1 -12   85.01   18.30
   9   1 -12   46.71   13.29
   9   1 -12   53.34   12.45
   7  -1 -12   30.22    8.18
   7  -1 -12   24.95    7.69
   7   1 -12   66.63   14.87
   5  -1 -12  379.29   19.03
  -3  -1  12  575.99   26.16
   3   1 -12  653.67   24.35
   1  -1 -12  481.24   19.96
  -1   1  12  445.12   19.67
   1  -1  12  496.86   20.94
  -1   1 -12  459.82   20.65
  -3  -1 -12  599.08   27.15
   3   1  12  607.97   24.58
  -5  -1 -12   15.35    6.59
  -5  -1 -12   15.01    7.01
   5   1  12   11.88    5.89
  -5   1 -12   34.51    9.15
   7  -1  12   35.05   10.03
  -7  -1 -12   80.40   15.85
  -7   1 -12   26.14    9.21
  -7   1 -12   25.56    7.60
  -9  -1 -12   98.74   18.85
  -9  -1 -12  103.89   14.43
   9   1  12   90.75   17.42
  11  -1  12    7.45    7.07
 -11  -1 -12   28.18   10.65
 -11  -1 -12   36.24   13.49
 -11   1 -12   26.82   11.06
  11   1  12   40.72   13.09
  13  -1  12  114.31   16.47
 -13   1 -12  105.03   14.75
 -15  -1 -12   32.28   12.79
  15  -1  12   16.48   10.46
  15   1  12   50.07   15.59
 -15   1 -12    8.08    7.31
  17  -1  12   23.36   11.47
 -17   1 -12    0.50    4.43
  17   1  12    3.05    8.59
  16  -2 -12    2.95    6.36
  16   2 -12   14.72   10.19
  14  -2 -12   28.79   10.40
  14  -2 -12   44.89   14.65
  14   2 -12   23.14   11.21
  12  -2 -12    1.08    5.77
  12  -2 -12   -1.26    4.24
  12   2 -12    4.26    7.20
  12   2 -12    6.73    5.84
  10  -2 -12  357.38   24.76
  10  -2 -12  324.89   22.36
  10   2 -12  338.26   25.01
  10   2 -12  340.12   28.05
   8  -2 -12    1.82    4.03
   8  -2 -12    5.01    4.60
   8   2 -12    0.79    4.50
   8   2 -12    0.58    4.12
   6  -2 -12   45.15    8.74
   6   2 -12   34.82    9.91
   6   2 -12   43.35    9.32
   4  -2 -12   -3.05    2.62
  -4  -2  12   -1.29    3.59
  -4   2  12   -0.71    3.41
   4   2 -12   -0.23    3.13
   2  -2 -12   62.49    9.34
  -2  -2  12   32.65    8.44
   2   2 -12   46.94    8.78
  -2   2  12   39.38    8.04
   0  -2 -12    2.93    3.41
   0  -2  12   -1.47    2.88
   0   2 -12    1.43    3.04
   0   2  12   -0.58    2.55
  -2  -2 -12 1082.40   37.16
  -2   2 -12 1065.33   35.34
  -4  -2 -12    1.05    3.74
  -4  -2 -12   -1.11    2.59
   4  -2  12    0.74    3.56
   4   2  12    7.45    5.12
  -4   2 -12    4.50    4.38
   6  -2  12  403.13   21.75
  -6  -2 -12  413.62   25.88
  -6  -2 -12  358.97   24.15
   6   2  12  397.12   22.86
  -6   2 -12  390.83   22.93
  -8  -2 -12   -3.80    5.28
   8  -2  12    1.43    4.54
  -8  -2 -12   -0.80    4.22
  -8   2 -12    1.50    5.02
  -8   2 -12    7.09    4.53
   8   2  12   -0.99    4.54
 -10  -2 -12  336.48   27.35
  10  -2  12  345.59   24.44
 -10  -2 -12  339.73   27.17
 -10   2 -12  336.53   24.79
  10   2  12  326.19   25.33
 -10   2 -12  339.89   22.78
  12  -2  12   -1.80    4.94
 -12  -2 -12   15.56    9.90
 -12  -2 -12   -0.09    5.58
 -12   2 -12   -1.81    2.63
  12   2  12   -0.79    5.67
  14  -2  12   93.25   19.40
 -14  -2 -12  124.70   26.47
  14   2  12   72.97   17.54
 -14   2 -12   71.06   15.55
  16  -2  12    4.94    8.35
 -16  -2 -12    9.01    7.94
  16   2  12    3.72    7.42
 -16   2 -12    0.40    4.72
  17  -3 -12    7.65    8.02
  17   3 -12   32.01   13.40
  17   3 -12   41.79   17.93
  15  -3 -12   43.18   13.88
  15  -3 -12   20.81   16.57
  15   3 -12   26.80   12.71
  13  -3 -12    3.22    5.98
  13  -3 -12   12.45    7.44
  13   3 -12   34.11   13.30
  11  -3 -12   90.96   16.63
  11   3 -12   43.11   12.24
  11   3 -12   32.28   12.81
   9  -3 -12   52.74   10.98
   9  -3 -12   57.46   12.45
   7   3 -12   35.23   11.51
   7   3 -12   33.63    8.96
   5   3 -12  241.96   16.47
   5   3 -12  251.90   20.36
  -3  -3  12   70.39   12.84
   3   3 -12   50.36    7.02
   3   3 -12   54.52   11.85
   1  -3 -12   29.63    6.98
  -1   3  12   26.25    6.11
   1  -3  12   42.82    8.69
  -1   3 -12   52.36    8.89
  -3  -3 -12  206.50   16.94
  -3  -3 -12  186.88   15.29
   3   3  12  175.77   12.96
  -5  -3 -12  167.01   16.38
  -5  -3 -12  149.69   15.53
   5   3  12  167.14   14.27
   7  -3  12  128.23   12.65
  -7   3 -12  125.53   13.34
  -7   3 -12  126.51   11.97
  -9  -3 -12  171.33   19.17
  -9  -3 -12  187.59   19.96
   9   3  12  145.59   16.66
 -11  -3 -12    1.66    5.76
 -11  -3 -12    0.45    7.81
  11  -3  12   20.43    9.45
 -11   3 -12   17.87    7.09
  11   3  12    8.52    8.46
 -13  -3 -12   68.88   18.37
  13   3  12   75.60   18.46
  15  -3  12   44.00   14.72
 -15  -3 -12   13.16   10.16
  15   3  12   18.86   11.45
  17  -3  12    6.73    8.53
  17   3  12    4.33    9.71
  16  -4 -12  109.29   15.93
  16   4 -12   91.78   25.62
  16   4 -12   81.87   23.20
  14  -4 -12    4.92    5.20
  14  -4 -12   -3.16    5.62
  14   4 -12   14.74    8.59
  12  -4 -12  152.72   16.20
  12  -4 -12  150.23   15.98
  12   4 -12  174.94   23.36
  12   4 -12  163.04   19.35
  10  -4 -12    0.74    4.86
  10  -4 -12   -0.07    3.86
  10   4 -12    7.18    7.98
  10   4 -12   11.18    7.59
   8  -4 -12  159.06   13.17
   8   4 -12  144.02   15.22
   8   4 -12  166.40   19.79
   6  -4 -12   -1.66    2.87
   6   4 -12   -0.10    4.38
   6   4 -12    0.54    3.90
   4  -4 -12  724.39   24.72
  -4  -4  12  737.78   34.15
   4   4 -12  734.03   35.94
   4   4 -12  735.90   29.27
   2  -4 -12   -0.72    2.67
  -2  -4  12   -1.17    3.31
   2   4 -12    2.02    3.46
   2   4 -12   -1.35    2.70
  -2   4  12   -0.44    2.28
   0  -4 -12  380.89   18.78
   0  -4  12  364.50   19.23
   0   4  12  404.24   17.30
   0   4 -12  394.98   18.49
   2  -4  12    5.72    4.33
  -2  -4 -12    3.06    3.74
  -2  -4 -12    0.19    3.37
  -2   4 -12    0.80    3.22
   2   4  12    0.61    3.32
   4  -4  12  331.50   17.58
  -4  -4 -12  310.48   21.26
  -4  -4 -12  279.31   21.41
  -4   4 -12  315.41   17.96
   4   4  12  295.60   17.96
  -6  -4 -12    6.23    5.76
  -6  -4 -12    3.19    4.00
   6  -4  12   -0.21    3.96
   6   4  12   -2.59    3.63
  -6   4 -12    2.23    3.84
   8  -4  12  451.71   24.50
  -8  -4 -12  430.18   30.68
  -8  -4 -12  454.95   32.31
   8   4  12  436.23   27.56
  -8   4 -12  454.93   22.38
  -8   4 -12  472.52   25.18
 -10  -4 -12    9.03    7.07
 -10  -4 -12    7.57    6.01
  10  -4  12   -0.37    4.51
  10   4  12   -0.34    5.15
 -12  -4 -12  119.39   25.65
  12  -4  12  133.55   15.84
 -12  -4 -12  172.58   36.00
  12   4  12  104.98   20.61
 -14  -4 -12    7.48    7.12
  14  -4  12    7.24    8.42
  14   4  12    0.84    7.26
  16  -4  12   14.47   11.00
  16   4  12    9.65   10.40
  17   5 -12    5.72    9.93
  17   5 -12   10.79   12.10
  15  -5 -12   45.92   15.79
  15  -5 -12   32.22   10.61
  15   5 -12   91.01   24.63
  15   5 -12   77.84   22.84
  13  -5 -12   92.36   17.45
  13  -5 -12   76.74   15.15
  11  -5 -12   20.88    7.59
  11  -5 -12   23.36    8.74
  11   5 -12   44.27   16.76
   9   5 -12   18.72    7.54
   9   5 -12   16.52    8.45
   7  -5 -12    6.42    4.33
   7   5 -12   15.56    6.41
   7   5 -12   20.95    9.90
   5   5 -12   38.27    8.72
   5   5 -12   26.23    9.16
  -3  -5  12  163.23   15.48
   3   5 -12  185.52   17.58
   3   5 -12  171.44   12.68
  -1  -5  12   52.05   10.65
   1   5 -12   44.50   10.85
   1   5 -12   43.76    8.30
  -1  -5 -12   43.85    9.13
  -1  -5 -12   43.91   10.86
   1   5  12   34.23    7.21
  -3  -5 -12  195.41   18.06
  -3  -5 -12  217.53   17.31
   3   5  12  231.55   14.72
  -5  -5 -12   19.69    8.57
  -5  -5 -12   11.75    6.68
   5   5  12    8.06    5.65
  -7  -5 -12   79.37   17.79
  -7  -5 -12   89.33   19.86
   7   5  12   82.58   15.34
  -9  -5 -12  103.10   21.87
  -9  -5 -12  114.02   24.01
   9   5  12   84.06   17.54
 -11  -5 -12   55.17   16.97
  11   5  12   59.31   15.79
 -13  -5 -12   36.64   14.31
  13   5  12   57.01   16.43
  15   5  12   49.41   15.92
  16   6 -12   10.55    9.44
  16   6 -12    5.91    8.04
  14  -6 -12  279.49   24.93
  14   6 -12  290.69   32.61
  14   6 -12  246.82   31.72
  12  -6 -12    0.23    4.94
  12  -6 -12    1.87    3.89
  12   6 -12   -2.35    5.31
  10  -6 -12  236.23   17.05
  10  -6 -12  243.72   17.92
  10   6 -12  257.12   27.79
   8  -6 -12    0.16    3.46
   8   6 -12    5.58    5.53
   8   6 -12   -2.86    4.25
   6  -6 -12   38.21    7.07
   6   6 -12   40.39   10.05
   6   6 -12   31.05   12.18
  -4  -6  12    1.58    5.18
   4  -6 -12   -0.01    2.76
   4   6 -12    1.84    4.56
   4   6 -12    1.49    3.94
   2  -6 -12  557.35   21.62
  -2  -6  12  542.06   28.10
  -2   6  12  571.45   17.98
   2   6 -12  547.10   23.33
   2   6 -12  556.72   31.21
   0  -6  12    1.17    3.51
   0  -6 -12    5.46    3.59
   0  -6 -12   -0.96    2.86
   0   6  12    0.18    2.45
   0   6 -12    2.27    3.08
   0   6 -12   -1.68    3.35
  -2  -6 -12  209.07   19.06
   2  -6  12  241.02   15.42
  -2  -6 -12  231.15   17.38
  -2   6 -12  242.31   14.27
   2   6  12  255.11   14.53
  -2   6 -12  264.35   18.10
   4  -6  12    3.80    3.96
  -4  -6 -12    5.08    5.10
  -4  -6 -12    2.83    4.50
  -4   6 -12   -2.51    2.23
   4   6  12   -0.69    3.54
   6  -6  12   13.95    6.10
  -6  -6 -12   13.61    7.77
  -6  -6 -12   13.69    7.70
  -6   6 -12   25.62    7.22
   6   6  12   21.38    8.52
  -8  -6 -12   -0.38    7.22
  -8  -6 -12    6.13    3.99
   8  -6  12    4.35    5.22
   8   6  12   -2.40    3.95
  10  -6  12  196.27   17.00
 -10  -6 -12  184.91   23.65
  10   6  12  155.78   18.57
  12  -6  12    5.77    6.29
 -12  -6 -12   14.65   11.04
  12   6  12   -1.24    5.17
  14  -6  12   17.10   10.21
  14   6  12    7.84    8.89
  16  -6  12    0.51    6.76
  16   6  12   -1.20    6.68
  15  -7 -12   81.45   18.94
  15   7 -12   21.15   11.92
  15   7 -12    7.16   11.67
  13  -7 -12    9.41    7.18
  13   7 -12   30.23   15.86
  13   7 -12   16.42   10.05
  11  -7 -12   68.37   12.83
  11  -7 -12   62.25    8.82
  11   7 -12   30.99   15.21
   9   7 -12   50.19   17.38
   9   7 -12   38.55   10.88
   7  -7 -12    1.53    3.25
   7   7 -12   -3.35    4.01
   7   7 -12    0.20    5.04
   5   7 -12   88.18   11.04
   5   7 -12  109.74   21.72
   3  -7 -12   75.79   10.95
  -3  -7  12   35.51   10.68
   3   7 -12   40.25    8.62
   3   7 -12   49.73   14.58
  -1  -7  12   85.36   11.21
   1   7 -12   87.51    9.05
   1   7 -12   94.84   16.58
  -1  -7 -12   56.60   13.96
   1  -7  12   24.74    7.18
  -1   7 -12   31.91    9.42
  -1   7 -12   18.62    5.56
  -3  -7 -12   63.95   13.10
  -3  -7 -12   44.04   11.72
   3   7  12   55.90    9.91
   5  -7  12   16.30    5.91
  -5  -7 -12   26.21    9.71
  -5  -7 -12   39.53   12.82
   5   7  12   35.83    9.57
  -5   7 -12    9.10    5.18
  -5   7 -12    8.65    4.04
  -7  -7 -12   27.63   11.27
  -7  -7 -12   22.93    9.86
   7   7  12   30.80   10.84
  -9  -7 -12  125.68   27.63
   9   7  12  106.05   14.88
 -11  -7 -12    0.40    6.26
  11  -7  12   42.76   10.80
  11   7  12   17.89    9.36
  13   7  12   81.05   19.30
  15  -7  12   52.31   14.65
  14  -8 -12    3.33    7.61
  14   8 -12    8.42    9.61
  14   8 -12    5.85    5.18
  12  -8 -12  128.40   14.83
  12   8 -12  133.42   28.17
  12   8 -12  140.95   32.87
  10  -8 -12   -4.07    3.37
  10   8 -12    6.20    6.39
  10   8 -12    2.26    5.14
   8  -8 -12  131.22   10.29
   8   8 -12  120.48   14.86
   8   8 -12  118.61   24.06
   6  -8 -12    1.32    3.05
   6   8 -12   -0.16    5.99
   6   8 -12    5.90    5.20
   4  -8 -12  168.46   10.90
   4  -8 -12  167.12   15.66
  -4  -8  12  162.24   17.79
   4   8 -12  181.23   14.38
   4   8 -12  185.59   21.12
   2  -8 -12    9.91    4.05
  -2  -8  12    1.37    4.03
   2  -8 -12    6.71    4.63
   2   8 -12    4.48    3.82
   2   8 -12   -2.09    3.47
   0  -8  12   42.80   10.23
   0  -8 -12   78.49   16.67
   0  -8 -12   52.51   10.53
   0   8 -12   55.49    9.51
   0   8  12   37.83    4.84
   0   8 -12   68.58   15.66
  -2  -8 -12    0.98    4.35
  -2  -8 -12    5.52    5.14
   2  -8  12    2.51    3.80
   2   8  12    0.11    3.15
  -2   8 -12   -2.38    3.59
  -2   8 -12    3.89    3.18
   4  -8  12  115.97   11.17
  -4  -8 -12  135.42   17.93
  -4  -8 -12  133.54   15.99
   4   8  12  152.21   13.12
  -4   8 -12  113.55   12.29
  -4   8 -12  134.64    9.11
  -6  -8 -12   -0.24    4.14
  -6  -8 -12    4.77    6.95
   6  -8  12    0.60    3.90
   6   8  12   -2.43    4.35
  -8  -8 -12  232.66   24.84
   8  -8  12  237.70   17.04
   8   8  12  229.72   20.38
  10  -8  12   -0.61    4.59
  10   8  12    3.29    7.46
  12  -8  12   95.88   13.98
  12   8  12   71.94   18.19
  14  -8  12   -1.39    5.74
  14   8  12    5.01    8.55
  15  -9 -12   15.00   10.95
  15   9 -12   43.45   18.45
  15   9 -12   10.23   12.99
  13  -9 -12   30.48   10.53
  13   9 -12    1.34    8.36
  13   9 -12    0.73    9.23
  11  -9 -12   27.09    8.26
  11   9 -12   76.57   20.51
  11   9 -12   46.40   18.20
   9  -9 -12  110.75   11.69
   9  -9 -12  108.76    9.74
   9   9 -12   64.42   20.75
   9   9 -12   67.24   18.85
   7   9 -12  112.37   26.76
   7   9 -12   84.80   11.97
   5  -9 -12  121.48    8.99
   5  -9 -12  141.15   14.61
   5   9 -12   67.42   18.93
  -3  -9  12   73.41   15.85
   3   9 -12   88.01   21.12
   3   9 -12   71.15    9.12
  -1  -9  12   24.81    9.18
   1  -9 -12   77.27   16.26
   1   9 -12   24.81    9.98
   1   9 -12   25.62    6.79
   1  -9  12   90.38   11.43
  -1   9 -12  113.32    9.48
  -1   9 -12   97.63   13.67
   3  -9  12   83.94   10.19
  -3   9 -12   95.23   12.53
  -3   9 -12   91.06    7.14
  -5  -9 -12   37.16   13.33
  -5  -9 -12   36.63   12.32
   5   9  12   35.76    9.68
  -7  -9 -12  131.12   25.92
   7   9  12   93.72   13.60
   9  -9  12   96.10   11.63
   9   9  12   28.60   10.72
  11  -9  12    2.18    5.58
  11   9  12    4.34    7.34
  13  -9  12   53.08   12.83
  13   9  12   22.09   11.00
  14 -10 -12   29.52   12.88
  14  10 -12   16.46   13.37
  14  10 -12    9.19   11.70
  12 -10 -12    1.20    5.23
  12  10 -12   -0.19    7.36
  12  10 -12    1.58    6.66
  10 -10 -12  247.76   15.60
  10  10 -12  199.89   28.76
  10  10 -12  225.32   27.40
   8 -10 -12    5.17    3.77
  -8 -10  12   -2.87    3.07
   8 -10 -12    6.27    4.97
   8  10 -12    4.09    7.25
   8  10 -12    4.97    6.89
   6 -10 -12  112.27    8.69
   6  10 -12  123.76   17.57
   6  10 -12  121.29   13.39
   4 -10 -12    0.75    3.91
   4 -10 -12    8.54    3.62
   4  10 -12    6.99    5.70
   4  10 -12    8.63    5.09
   2 -10 -12   90.54   18.84
   2 -10 -12   60.28    8.58
  -2 -10  12   67.79   15.40
   2  10 -12   43.94   13.57
   2  10 -12   61.08    8.55
   0 -10 -12   14.81    5.39
   0 -10 -12    3.91    6.13
   0 -10  12    7.02    5.18
   0  10 -12    5.02    2.91
   0  10 -12    0.60    4.42
   2 -10  12  317.84   20.50
  -2 -10 -12  317.54   23.43
  -2 -10 -12  306.40   28.00
  -2  10 -12  356.40   25.80
   2  10  12  318.86   15.30
  -2  10 -12  321.46   13.76
  -2  10 -12  326.32   14.96
  -4 -10 -12    1.92    5.21
   4 -10  12    7.44    5.42
  -4 -10 -12    6.23    7.90
  -4  10 -12    2.31    4.69
   4  10  12    2.33    4.76
  -6 -10 -12  209.73   22.88
   6 -10  12  173.61   14.42
   6  10  12  153.57   15.96
   8 -10  12    3.97    5.06
   8  10  12    7.80    7.44
  10 -10  12  165.06   15.51
  10  10  12  140.59   24.09
  12 -10  12    6.46    6.54
  12  10  12    2.37    5.33
  14 -10  12   85.68   16.88
  14  10  12   71.77   19.76
  13 -11 -12    7.26    6.80
  13  11 -12    9.60   10.75
  13  11 -12    9.93   11.96
  11 -11 -12   35.41    8.30
  11  11 -12    5.08    9.08
  11  11 -12   16.19   12.73
   9 -11 -12   12.41    4.52
   9 -11 -12   23.26    7.53
   9  11 -12   18.46   11.46
   9  11 -12   43.87   18.78
   9  11 -12   38.97   16.42
   7 -11 -12   27.35    8.49
   7  11 -12   19.76   10.03
   7  11 -12   13.69   11.16
   7  11 -12   11.12    6.63
   5  11 -12   78.97   10.13
   5  11 -12   94.11   24.55
   5  11 -12   74.40   17.09
  -3 -11  12   67.99   16.07
   3  11 -12   57.47   18.34
   3  11 -12   72.94    8.70
  -1 -11  12   80.64   16.16
   1 -11 -12   47.04   14.18
   1  11 -12   99.73    9.28
   1  11 -12   86.86   10.90
   1  11 -12   99.67   21.40
  -1 -11 -12   94.65   20.84
   1 -11  12   51.76   11.68
  -1  11 -12   39.04    5.70
  -1  11 -12   42.97    5.10
  -1  11 -12   33.68   12.65
  -3 -11 -12   39.00   12.86
  -3 -11 -12   28.04   11.36
   3  11  12   30.38    6.93
  -5 -11 -12   45.13   14.94
  -5 -11 -12   54.80   16.26
   5 -11  12   20.37    6.01
  -5  11 -12   14.85    7.02
   7 -11  12   26.66    7.59
   7  11  12   16.76    7.81
   9  11  12   63.55   16.45
  11 -11  12   25.44    8.92
  11  11  12    2.38    7.73
  13 -11  12   26.33    9.53
  13  11  12   28.94   15.33
  12 -12 -12   26.36    8.05
  12  12 -12   19.48   14.20
  12  12 -12   40.92   18.32
  10 -12 -12    5.70    3.86
  10  12 -12   15.22    9.28
  10  12 -12    4.39    9.24
   8 -12 -12   66.57    6.98
   8 -12 -12   77.59   15.86
   8  12 -12   96.73   22.52
   8  12 -12   59.67   18.61
   8  12 -12   51.67   16.51
   6 -12 -12   -3.60    3.88
   6 -12 -12    9.31    3.61
   6  12 -12    0.45    5.73
   6  12 -12    5.54    5.32
   6  12 -12    5.45    5.85
   4 -12 -12   98.13   10.07
   4 -12 -12   90.94   18.92
   4  12 -12   98.73   11.46
   4  12 -12  104.87   19.59
   4  12 -12  103.80   26.01
   2 -12 -12   18.67    5.59
  -2 -12  12   12.20    7.54
   2 -12 -12    2.88    5.02
   2  12 -12   12.42    4.57
   2  12 -12    3.39    7.09
   2  12 -12    7.43    5.49
   0 -12 -12  107.28   23.93
   0 -12  12   85.48   16.08
   0 -12 -12   93.89   13.29
   0  12 -12   86.22    7.58
   0  12 -12   93.93   20.81
   0  12 -12   89.66    8.71
  -2 -12 -12   -0.58    4.47
  -2 -12 -12    3.57    4.88
   2 -12  12   10.33    5.70
  -2  12 -12    1.25    5.60
  -4 -12 -12  157.79   22.40
  -4 -12 -12  181.73   21.51
   4 -12  12  135.66   13.93
   4  12  12  171.58   12.94
  -4  12 -12  181.54   18.81
   6 -12  12    7.58    3.90
   6  12  12    1.62    4.81
   8 -12  12  208.17   16.34
   8  12  12  190.43   19.64
  10 -12  12   12.47    4.85
  10  12  12   12.36    9.06
  12 -12  12  113.07   13.95
  12  12  12   96.21   23.07
  11  13 -12   31.06   15.25
  11  13 -12   32.29   13.99
   9  13 -12   16.98   11.71
   9  13 -12   11.20   11.08
   7 -13 -12    7.87    7.77
   7 -13 -12   14.74    4.85
   7  13 -12   38.48   13.84
   7  13 -12   41.15   16.81
   5  13 -12   59.38   14.86
   5  13 -12   47.24   10.69
   5  13 -12   42.99   14.19
   3  13 -12   89.21   21.47
   3  13 -12  109.64   13.25
   3  13 -12   98.40   10.62
  -1 -13  12   69.22   15.69
   1 -13 -12  129.83   25.27
   1  13 -12   46.56   15.04
   1  13 -12   62.27    7.78
   1  13 -12   56.67    6.47
  -1 -13 -12   60.33   18.00
   1 -13  12  113.28   14.37
  -1  13 -12  131.26   18.26
   3 -13  12   69.71   13.53
  -3  13 -12   59.40   15.49
   3  13  12   64.16    6.32
   5 -13  12   25.92    7.86
  -5  13 -12   14.92    7.60
   5  13  12   11.02    6.12
   7 -13  12   36.68    9.15
   7  13  12   82.34   14.66
   9  13  12   23.82   10.13
  11 -13  12    3.99    5.56
  11  13  12   19.11   12.29
  10 -14 -12  101.68    8.59
  10  14 -12   97.03   28.64
  10  14 -12  107.99   27.90
   8 -14 -12   10.11    3.99
   8 -14 -12    0.90    5.85
   8  14 -12   13.01    9.02
   8  14 -12   -4.34    5.88
   6 -14 -12   80.57    9.89
   6 -14 -12   95.32   19.50
   6  14 -12  120.25   20.64
   6  14 -12   84.34   18.74
   6  14 -12   79.93   23.23
   4 -14 -12   13.90    5.28
   4 -14 -12    5.69    5.66
   4  14 -12    6.53    8.48
   4  14 -12   15.76    5.43
   4  14 -12    7.70    4.69
   2 -14 -12  103.06   18.62
   2 -14 -12  105.00   23.46
   2  14 -12   74.90    9.72
   2  14 -12   84.22   20.97
   0 -14  12   17.13    7.73
   0 -14 -12   12.14    7.64
   0 -14 -12    5.12    7.03
   0  14 -12    4.32    6.15
  -2 -14 -12  231.21   25.28
   2 -14  12  198.59   19.53
  -2  14 -12  209.56   23.18
   4 -14  12   19.97    7.23
  -4  14 -12    5.80    5.69
   4  14  12    0.74    2.29
   6 -14  12  134.39   14.13
   6  14  12  124.88   13.47
   8 -14  12   12.39    4.86
   8  14  12   11.84    8.56
  10 -14  12   88.33   12.14
  10  14  12  117.77   22.81
   9 -15 -12    8.08    5.84
   9  15 -12   19.60   13.35
   9  15 -12   15.06   11.24
   7 -15 -12    5.55    7.13
   7 -15 -12   24.21    8.45
   7  15 -12    7.75   11.95
   7  15 -12    3.78    8.06
   5 -15 -12   17.01   10.85
   5 -15 -12   24.43    9.53
   5  15 -12   53.42   13.60
   5  15 -12   26.04   13.00
   3 -15 -12   30.22   13.21
   3 -15 -12   45.90   13.89
   3  15 -12    7.57    8.71
   3  15 -12   -0.71    3.15
   1 -15 -12    7.24   11.37
   1 -15 -12   21.10   11.95
   1  15 -12   51.29   18.68
   1 -15  12   17.66    9.05
  -1 -15 -12   45.10   17.50
  -1  15 -12   23.77   11.82
   3 -15  12   58.12   13.65
  -3  15 -12   89.43   20.10
   5 -15  12   31.83   10.11
   7 -15  12   48.94   11.62
   7  15  12    3.51    4.86
   7  15  12    0.82    4.91
   6 -16 -12    4.67    8.47
   6 -16 -12   13.95    7.78
   6  16 -12    0.55    5.12
   6  16 -12   -0.56    5.46
   6  16 -12   -0.07    4.06
   4 -16 -12   76.09   20.82
   4 -16 -12  109.69   20.59
   4  16 -12   79.78   24.29
   2 -16 -12    6.18    8.08
   2  16 -12   -0.33    8.06
   0 -16 -12  126.39   28.46
   0  16 -12   92.35   24.94
   2 -16  12    4.45    5.79
  -2  16 -12   -2.95    4.82
   4 -16  12   87.81   17.90
   6 -16  12    6.01    4.63
   6  16  12   -0.01    2.84
   6  16  12   -0.38    2.22
   3 -17 -12   24.13   13.95
   3  17 -12   32.57   16.75
   1 -17 -12   22.33   15.44
   1  17 -12    1.08    7.78
  -1  17 -12   21.71   13.47
   3 -17  12   18.36   10.67
  -3  17 -12    7.16    7.83
  16   0 -13    8.62    8.26
  14   0 -13  522.72   38.91
  12   0 -13   -1.45    5.75
  12   0 -13   -5.32    2.98
  10   0 -13  327.38   26.05
  10   0 -13  318.78   23.09
   8   0 -13   -1.78    3.71
   8   0 -13    1.59    4.18
   6   0 -13   60.40   11.12
  -4   0  13    0.18    3.65
   4   0 -13    0.04    3.24
  -2   0  13  860.85   31.61
   2   0 -13  835.77   28.88
   0   0 -13    2.57    3.50
   0   0  13    2.22    3.64
   2   0  13 1461.58   43.06
  -2   0 -13 1416.90   44.87
   4   0  13    1.95    3.83
  -4   0 -13    3.72    4.30
  -6   0 -13   90.97   11.84
  -6   0 -13   80.99   10.95
   6   0  13   81.00   10.72
   8   0  13    3.22    5.96
  -8   0 -13    4.49    5.44
  -8   0 -13   -0.89    5.10
 -10   0 -13  517.49   33.33
 -10   0 -13  484.17   31.33
  10   0  13  503.15   30.89
  12   0  13    3.92    6.89
 -12   0 -13    2.36    5.04
  14   0  13  211.12   23.86
 -14   0 -13  247.22   25.89
 -16   0 -13   -0.77    4.41
  16   0  13   -0.62    6.32
  17  -1 -13    5.53    8.09
  17   1 -13   15.46   10.26
  15  -1 -13   67.99   19.02
  15   1 -13   38.08   13.56
  13  -1 -13   12.35    9.43
  13  -1 -13   12.21    8.97
  13   1 -13   45.98   14.82
  13   1 -13   36.19   12.96
  11  -1 -13   73.63   15.45
  11   1 -13   34.84   10.97
  11   1 -13   32.88   10.14
   9   1 -13   85.30   11.89
   9   1 -13   90.19   19.07
   7  -1 -13   17.76    6.82
   7   1 -13    8.75    6.20
   7   1 -13    9.11    5.99
  -5  -1  13  267.26   18.91
   5   1 -13  261.65   16.56
   3  -1 -13  379.83   17.87
  -3   1  13  362.46   19.41
   1  -1 -13  150.99   11.56
  -1   1  13  146.19   11.57
  -1  -1 -13  299.96   16.96
   1   1  13  235.44   14.68
   3  -1  13  549.84   23.50
  -3   1 -13  548.47   25.49
  -5  -1 -13  102.31   12.34
  -5  -1 -13  105.44   12.41
   5   1  13  102.68   11.15
  -7  -1 -13   86.37   16.85
  -7  -1 -13   75.21   15.07
   7   1  13   52.08   11.88
   9  -1  13   80.26   15.23
  -9   1 -13   79.67   11.53
  -9   1 -13  107.66   13.81
  11  -1  13   32.88   10.93
 -11  -1 -13   26.21   11.50
 -11  -1 -13   19.33    9.30
 -11   1 -13   50.78   15.02
 -11   1 -13   45.71   12.40
  11   1  13   23.60   11.09
 -13  -1 -13  126.41   18.08
  13   1  13   83.05   18.68
 -15  -1 -13    4.73    8.34
  15  -1  13   55.46   15.31
 -15   1 -13    1.96    5.25
  15   1  13    6.48    8.84
  17  -1  13    3.41    7.41
 -17  -1 -13   -0.16    5.12
 -17   1 -13   -0.80    4.57
  17   1  13   24.84   11.89
  16  -2 -13  145.75   20.29
  16   2 -13  151.32   30.32
  14  -2 -13    0.69    5.97
  14  -2 -13   -0.74    4.48
  14   2 -13   -1.75    5.37
  12  -2 -13  163.08   17.50
  12  -2 -13  181.67   19.53
  12   2 -13  121.38   17.99
  12   2 -13  138.32   17.07
  10  -2 -13   -1.15    4.03
  10  -2 -13    1.33    4.61
  10   2 -13    0.90    4.97
  10   2 -13   -2.26    4.60
   8  -2 -13  323.62   22.44
   8  -2 -13  304.90   19.44
   8   2 -13  290.31   20.92
   8   2 -13  259.45   23.05
   6  -2 -13   -0.98    2.80
   6   2 -13   -1.30    2.73
   6   2 -13    1.58    3.97
   4  -2 -13  294.67   15.71
  -4  -2  13  332.35   21.23
  -4   2  13  312.93   17.69
   4   2 -13  323.40   17.78
  -2  -2  13   -1.88    3.08
   2  -2 -13   -1.23    2.83
  -2   2  13    2.13    3.36
   2   2 -13   -0.63    2.81
   0  -2  13  293.70   16.52
   0  -2 -13  258.58   15.43
   0   2 -13  264.85   15.28
   0   2  13  257.29   14.58
   2  -2  13    1.53    3.71
  -2  -2 -13    1.11    4.03
  -2   2 -13    3.15    3.60
   2   2  13   -1.53    2.97
  -4  -2 -13  204.46   17.25
   4  -2  13  203.11   14.26
  -4  -2 -13  233.24   17.72
   4   2  13  220.28   15.12
  -4   2 -13  178.27   14.69
  -6  -2 -13    5.24    4.36
  -6  -2 -13    4.84    5.41
   6  -2  13   -1.76    3.37
   6   2  13    1.55    4.17
  -6   2 -13    0.82    3.61
  -8  -2 -13  526.72   32.86
  -8  -2 -13  560.65   34.17
   8  -2  13  583.88   29.43
   8   2  13  543.01   30.34
  -8   2 -13  506.37   27.42
  -8   2 -13  523.30   30.00
 -10  -2 -13    9.95    7.52
 -10  -2 -13    2.75    3.70
  10  -2  13    1.25    5.40
 -10   2 -13    3.99    5.60
 -10   2 -13    8.82    5.86
  10   2  13    7.28    7.13
 -12  -2 -13  256.60   25.38
 -12  -2 -13  251.00   30.98
  12  -2  13  219.01   21.40
 -12   2 -13  224.10   20.00
  12   2  13  216.94   22.38
  14  -2  13   11.23    9.16
 -14  -2 -13   -2.61    4.75
 -14   2 -13    3.05    5.17
  14   2  13   -4.40    4.91
 -16  -2 -13   62.22   19.72
  16  -2  13   78.22   19.23
  16   2  13   87.50   20.98
  17  -3 -13   26.59   11.87
  17   3 -13   11.21   13.15
  17   3 -13    7.93   10.39
  15   3 -13   45.66   17.74
  13  -3 -13   38.54   12.01
  13  -3 -13   53.72   14.41
  11  -3 -13   45.11   12.75
  11  -3 -13   41.98   11.08
  11   3 -13   99.00   23.59
  11   3 -13   80.54   15.99
   9  -3 -13  107.08   11.85
   9  -3 -13  123.60   13.86
   9   3 -13   60.98   17.60
   7   3 -13   97.96   14.44
   7   3 -13  109.77   12.52
  -5  -3  13   97.88   17.53
   5   3 -13   67.57    8.90
   5   3 -13   72.02   13.97
   3  -3 -13   36.58    7.09
  -3  -3  13   74.14   10.13
  -3   3  13   50.46    6.94
   1  -3 -13   58.61    9.62
  -1   3  13   52.95    6.93
  -1  -3 -13   40.53    8.84
   1   3  13   49.77    7.05
   3  -3  13  173.43   12.85
  -3   3 -13  149.99   12.80
  -5  -3 -13   62.46   12.98
  -5  -3 -13   81.42   15.17
   5   3  13   53.75   10.73
  -7  -3 -13  138.76   16.78
  -7  -3 -13  151.22   16.81
   7   3  13  173.17   16.35
  -9  -3 -13   60.94   15.92
   9  -3  13  125.80   14.26
  -9  -3 -13   73.07   17.81
  -9   3 -13  129.01   14.41
  -9   3 -13  105.94   11.81
 -11  -3 -13    9.04    9.96
  11  -3  13    4.86    6.25
 -11  -3 -13   10.43    7.81
  11   3  13   10.74    8.78
 -11   3 -13    4.28    5.01
  13  -3  13  100.68   19.34
 -13   3 -13   85.55   16.50
 -15  -3 -13   51.07   22.14
  15   3  13   62.69   17.52
  16  -4 -13   -1.41    4.46
  16   4 -13   13.67   10.72
  16   4 -13   -1.08    4.57
  14  -4 -13  199.48   20.79
  14  -4 -13  199.75   19.99
  12  -4 -13    1.84    6.34
  12  -4 -13    0.56    4.46
  12   4 -13    1.23    5.80
  12   4 -13    3.21    7.33
  10  -4 -13  510.08   28.91
  10  -4 -13  492.06   26.54
  10   4 -13  440.62   35.07
  10   4 -13  480.50   31.51
   8  -4 -13   -0.40    3.40
   8   4 -13    3.75    5.69
   8   4 -13    3.36    4.55
   6  -4 -13 1374.67   41.16
   6   4 -13 1337.26   46.87
   6   4 -13 1326.22   55.39
   4  -4 -13    0.53    2.79
  -4  -4  13    1.06    3.76
   4   4 -13    2.52    3.73
   4   4 -13    0.83    3.11
  -2  -4  13  454.23   24.30
   2  -4 -13  424.93   19.20
  -2   4  13  452.62   19.07
   2   4 -13  456.52   26.37
   2   4 -13  449.47   20.70
   0  -4 -13    2.92    3.48
   0  -4  13   -0.45    3.42
   0   4  13    1.28    3.21
   0   4 -13   -1.25    2.52
   2  -4  13  740.11   27.86
  -2  -4 -13  664.82   29.77
  -2  -4 -13  673.75   33.25
  -2   4 -13  663.57   26.95
   2   4  13  678.85   26.07
   4  -4  13   -1.66    3.42
  -4  -4 -13    2.00    4.48
  -4  -4 -13    6.70    4.69
   4   4  13    2.37    4.11
  -4   4 -13    2.56    3.96
   6  -4  13  271.77   17.63
  -6  -4 -13  243.72   22.20
  -6  -4 -13  245.79   21.23
  -6   4 -13  258.05   17.91
   6   4  13  252.17   18.97
  -8  -4 -13    2.78    6.51
  -8  -4 -13    3.91    2.88
   8  -4  13    1.06    4.78
  -8   4 -13    1.04    4.86
  -8   4 -13    9.42    4.73
   8   4  13    2.02    5.19
 -10  -4 -13  232.97   24.74
 -10  -4 -13  205.72   23.24
  10  -4  13  216.65   18.65
 -10   4 -13  209.35   16.63
  10   4  13  182.36   19.66
 -12  -4 -13    1.03    3.70
 -12  -4 -13   11.31    8.42
  12  -4  13   -2.15    4.15
  12   4  13    6.98    7.19
  14  -4  13  202.03   21.36
  14   4  13  188.21   23.11
  16  -4  13    0.94    6.93
  16   4  13    4.57    8.78
  15  -5 -13   95.13   19.21
  15   5 -13   24.27   13.79
  15   5 -13   39.19   16.85
  13  -5 -13   33.30   11.13
  13  -5 -13   23.40    8.82
  13   5 -13   62.40   17.32
  11  -5 -13   73.55   10.85
  11  -5 -13   83.61   11.19
   9  -5 -13   38.85    8.83
   9   5 -13   72.53   18.02
   7  -5 -13   19.46    5.90
   7   5 -13    8.28    8.01
   7   5 -13    5.89    5.48
  -5  -5  13  121.18   15.05
   5   5 -13  117.35   15.71
   5   5 -13  119.40   12.44
  -3  -5  13   91.24   15.85
   3   5 -13   81.71   15.64
   3   5 -13   59.66   10.71
  -1  -5  13   87.66   10.84
   1   5 -13   93.14    9.37
   1   5 -13   87.16   11.66
  -1  -5 -13   55.92   11.99
  -1  -5 -13   79.52    9.58
   1   5  13   74.04    7.94
  -3  -5 -13   91.82   17.58
  -3  -5 -13   91.04   16.00
   3   5  13   70.08    8.65
  -5  -5 -13   39.27   12.40
   5  -5  13    5.13    4.75
  -5  -5 -13   23.17    8.01
   5   5  13   30.43    8.51
  -5   5 -13   14.52    5.73
  -7  -5 -13   26.28   11.58
  -7  -5 -13   32.75   11.63
   7   5  13   25.53    9.19
  -9  -5 -13  140.85   19.07
  -9  -5 -13  141.27   19.17
   9   5  13  125.45   15.86
  11  -5  13   24.46    9.36
 -11  -5 -13    6.63    9.65
  11   5  13    6.53    6.93
  13  -5  13   43.59   13.32
  13   5  13   76.26   17.16
  15  -5  13   77.61   19.63
  16   6 -13  128.70   32.40
  16   6 -13  217.45   41.15
  14  -6 -13   -2.86    5.82
  14  -6 -13    6.25    5.08
  14   6 -13    2.61    6.85
  14   6 -13    5.24    6.80
  12  -6 -13   85.11   11.86
  12  -6 -13  100.99   17.39
  12   6 -13   92.82   23.44
  10  -6 -13   -1.77    4.14
  10   6 -13   -0.21    5.78
   8  -6 -13  712.66   27.94
   8   6 -13  690.63   35.11
   8   6 -13  696.70   44.39
   6  -6 -13   -1.14    2.63
   6   6 -13   -0.10    3.82
   6   6 -13    1.98    5.83
   4  -6 -13 1713.19   45.65
  -4  -6  13 1771.54   62.25
   4   6 -13 1669.14   64.57
   4   6 -13 1756.46   52.20
   2  -6 -13    0.18    2.79
  -2  -6  13    5.43    4.68
  -2   6  13    2.79    2.52
   2   6 -13   -0.37    3.47
   2   6 -13    3.45    4.35
   0  -6 -13  419.29   21.16
   0  -6  13  393.89   22.08
   0  -6 -13  383.89   24.96
   0   6 -13  380.11   24.40
   0   6  13  408.68   17.31
   0   6 -13  387.84   19.04
  -2  -6 -13    2.86    3.84
  -2  -6 -13   -1.09    3.51
   2  -6  13    1.41    3.76
   2   6  13    2.90    3.88
  -2   6 -13    4.40    3.41
  -2   6 -13   -0.70    2.90
   4  -6  13   77.56    9.48
  -4  -6 -13  103.73   18.37
  -4  -6 -13   71.18   14.72
  -4   6 -13   77.24    9.03
   4   6  13   74.97    9.54
   6  -6  13   -2.78    3.06
  -6  -6 -13    4.95    5.70
  -6  -6 -13   -1.98    3.38
   6   6  13    0.69    4.61
  -6   6 -13   -0.22    3.51
  -8  -6 -13  393.93   32.39
   8  -6  13  429.88   23.98
   8   6  13  444.08   28.13
  -8   6 -13  451.36   21.43
  10  -6  13   -3.35    3.93
 -10  -6 -13    5.59    7.46
  10   6  13   -1.89    4.99
  12  -6  13  196.05   19.05
  12   6  13  190.83   21.62
  14  -6  13    0.49    6.50
  14   6  13   -0.09    8.13
  16   6  13  107.44   25.21
  15  -7 -13   36.29   14.24
  15   7 -13   82.76   23.26
  15   7 -13   65.17   20.09
  13  -7 -13   39.74   10.68
  13  -7 -13   46.14   12.39
  13   7 -13   13.24   12.65
  13   7 -13   12.51   11.30
  11  -7 -13   37.35    9.73
  11   7 -13   73.05   18.37
   9   7 -13   11.63    9.97
   9   7 -13   13.66   11.64
   7  -7 -13    5.11    4.27
   7   7 -13   15.36   10.38
   7   7 -13   30.44    9.30
   5   7 -13   37.31    9.56
   5   7 -13   36.81   12.98
  -3  -7  13   81.24   16.92
   3   7 -13  114.98   22.13
   3   7 -13   70.89    9.00
   1  -7 -13   47.95    9.26
  -1  -7  13   21.87    8.06
   1  -7 -13   35.82    9.87
  -1   7  13   36.52    4.95
   1   7 -13   19.17    6.33
   1   7 -13   16.74    8.82
  -1  -7 -13   36.94    9.20
   1  -7  13   62.64   11.49
  -1   7 -13   85.03   15.89
  -1   7 -13   55.90    7.63
  -3  -7 -13  106.63   20.85
  -3  -7 -13   92.72   12.68
   3   7  13   87.30    9.76
  -5  -7 -13    7.03    7.69
   5  -7  13   28.29    7.67
  -5  -7 -13    8.92    7.66
  -5   7 -13   24.19    7.66
  -5   7 -13   23.47    6.71
  -7  -7 -13   43.33   12.90
  -7  -7 -13   43.50   13.84
   7   7  13   83.10   16.45
   9  -7  13   82.78   11.33
  11  -7  13    9.38    7.56
  11   7  13    9.45    8.65
  13  -7  13   80.80   16.24
  13   7  13   19.72   10.24
  15   7  13   46.48   15.52
  14  -8 -13  213.43   20.78
  14   8 -13  175.77   36.87
  14   8 -13  174.60   36.49
  12  -8 -13    2.18    5.22
  12   8 -13    6.84    8.14
  12   8 -13    0.25    4.60
  10  -8 -13  307.11   18.82
  10   8 -13  305.18   25.60
  10   8 -13  307.29   32.62
   8  -8 -13   -3.73    2.84
   8   8 -13   16.85   10.47
   8   8 -13   -0.44    4.92
   6  -8 -13  563.80   21.32
   6   8 -13  557.32   39.32
   4  -8 -13    7.15    5.03
   4  -8 -13    3.58    2.99
  -4  -8  13    4.51    5.30
   4   8 -13    0.63    4.20
   4   8 -13    0.00    5.28
  -2  -8  13  187.89   17.80
   2  -8 -13  167.45   12.41
   2  -8 -13  201.58   18.53
   2   8 -13  195.89   20.53
   2   8 -13  181.44   13.72
   0  -8 -13    1.07    2.94
   0  -8  13    7.46    5.35
   0  -8 -13    5.27    3.93
   0   8 -13    1.76    4.31
   0   8  13    3.00    2.87
   0   8 -13    1.60    3.05
   2  -8  13  283.50   18.29
  -2  -8 -13  293.74   21.33
  -2  -8 -13  276.86   24.39
   2   8  13  273.16   15.45
  -2   8 -13  263.73   15.32
  -2   8 -13  290.50   21.58
   4  -8  13    4.29    4.59
  -4  -8 -13    8.41    5.71
  -4  -8 -13    8.89    5.79
  -4   8 -13    2.14    3.07
   4   8  13    1.91    4.24
  -4   8 -13    4.70    3.66
  -6  -8 -13  159.92   19.29
   6  -8  13  150.43   13.27
   6   8  13  156.62   15.41
  -6   8 -13  148.20   12.91
   8  -8  13   -0.43    4.51
  -8  -8 -13   19.84    8.71
   8   8  13    2.99    6.11
  10  -8  13  141.96   14.89
  10   8  13  148.11   18.63
  12  -8  13   -0.55    5.67
  12   8  13    0.09    5.84
  14  -8  13  140.58   19.40
  14   8  13  139.56   26.74
  15  -9 -13   31.72   12.84
  15   9 -13    9.69   12.78
  15   9 -13   -3.58    8.53
  13  -9 -13   21.91    9.21
  13   9 -13   22.80   10.98
  13   9 -13   50.02   18.96
  11  -9 -13   65.01   11.85
  11  -9 -13   62.70    8.69
  11   9 -13   37.75   14.33
  11   9 -13   24.75   12.08
   9  -9 -13   48.81    9.21
   9  -9 -13   65.57    9.41
   9   9 -13  116.31   24.00
   9   9 -13  115.42   27.53
   7  -9 -13   84.45   11.16
   7  -9 -13   68.48    7.22
   7   9 -13   28.28   13.24
   5  -9 -13   49.04   12.41
   5  -9 -13   45.59    6.39
   5   9 -13  105.58   21.17
  -3  -9  13   18.44    8.61
   3  -9 -13   73.42   14.84
   3  -9 -13   50.12    6.98
   3   9 -13   28.99    8.23
   3   9 -13   30.02   12.29
  -1  -9  13   82.44   16.27
   1   9 -13   74.13    8.91
   1   9 -13   82.21   19.00
  -1  -9 -13   80.59   10.55
  -1  -9 -13   83.06   18.09
   1   9  13   80.11    7.38
  -1   9 -13   51.03   13.76
  -3  -9 -13   92.72   21.74
  -3  -9 -13  102.15   13.85
   3   9  13   68.47    8.57
   5  -9  13   39.78    9.41
  -5   9 -13   41.38   10.01
  -7  -9 -13   45.72   14.18
   7   9  13   45.38   11.86
   9  -9  13   34.14    9.98
   9   9  13   75.68   16.77
  11  -9  13    5.21    6.36
  11   9  13   16.98   10.54
  13  -9  13   11.19    8.71
  13   9  13   41.24   14.56
  14 -10 -13    3.06    7.24
  14  10 -13    1.77    8.88
  14  10 -13   23.18   14.08
  12 -10 -13  128.20   14.19
  12  10 -13   95.06   24.58
  12  10 -13  111.17   26.49
  10 -10 -13    4.07    4.19
  10 -10 -13    1.64    4.41
  10  10 -13    0.65    5.55
  10  10 -13   10.09    9.17
   8 -10 -13  201.94   12.30
   8 -10 -13  199.72   17.50
   8  10 -13  170.36   22.61
   6 -10 -13    8.27    3.39
   6 -10 -13    4.49    4.31
   6  10 -13   -3.66    3.65
   6  10 -13    2.14    4.56
   4 -10 -13  209.60   19.54
   4 -10 -13  205.58   13.40
   4  10 -13  191.81   23.71
   4  10 -13  220.73   16.44
   2 -10 -13    5.76    4.61
  -2 -10  13    4.07    5.63
   2 -10 -13    4.44    3.64
   2  10 -13    1.35    4.76
   2  10 -13    6.19    4.56
   0 -10 -13  262.86   19.51
   0 -10 -13  236.72   23.38
   0 -10  13  249.40   20.28
   0  10 -13  266.10   15.31
   0  10 -13  254.53   23.85
  -2 -10 -13   12.15    5.63
  -2 -10 -13    8.35    5.36
   2 -10  13    6.85    5.85
   2  10  13    4.83    3.98
  -2  10 -13    6.01    6.99
  -4 -10 -13  186.31   19.88
  -4 -10 -13  173.14   22.07
   4 -10  13  205.54   15.90
   4  10  13  175.71   13.98
   6 -10  13   11.49    5.49
  -6 -10 -13   10.11    7.79
   6  10  13    3.82    5.65
   8 -10  13  246.91   18.59
   8  10  13  260.74   22.71
  10 -10  13    4.48    5.05
  10  10  13    2.49    7.02
  12 -10  13  104.55   14.73
  12  10  13  105.57   22.73
  13 -11 -13    7.94    7.60
  13  11 -13    1.76    6.51
  13  11 -13    5.78   10.77
  11 -11 -13    4.09    5.06
  11  11 -13    6.25   10.38
  11  11 -13   24.46   14.39
   9 -11 -13   30.59    9.48
   9 -11 -13   43.28    8.09
   9  11 -13   10.09    9.15
   9  11 -13   16.90   10.92
   7 -11 -13   11.06    7.23
   7 -11 -13   17.78    5.07
   7  11 -13    3.67    7.44
   7  11 -13   16.68   10.11
   7  11 -13   22.31    8.35
   5 -11 -13   53.29   13.87
   5  11 -13   20.26    6.98
   5  11 -13    8.79    9.13
   5  11 -13   23.21   10.36
  -3 -11  13  115.81   16.80
   3  11 -13  126.64   11.97
   3  11 -13  118.41   15.04
   3  11 -13  117.16   26.40
  -1 -11  13   32.10   10.14
   1 -11 -13   59.66   17.25
   1  11 -13   26.46    6.47
   1  11 -13   22.08    8.08
   1  11 -13   29.06   11.11
   1 -11  13   99.07   13.31
  -1  11 -13   83.31    8.89
  -1  11 -13  103.31    8.49
  -1  11 -13  101.03   19.76
  -3 -11 -13   97.86   20.66
  -3 -11 -13  122.88   16.33
  -3  11 -13   51.78   13.16
   3  11  13   92.21    9.39
   5 -11  13   42.62   10.01
  -5 -11 -13    8.64    9.19
  -5 -11 -13   12.40   10.68
   5  11  13   14.26    6.77
  -5  11 -13   41.48   10.68
   7 -11  13   19.06    7.17
   7  11  13   39.07   10.84
   9 -11  13   83.02   13.96
   9  11  13   18.96   10.64
  11 -11  13   25.17    8.39
  11  11  13   36.32   13.48
  13 -11  13   52.75   13.46
  13  11  13   11.99   11.91
  12 -12 -13    1.26    4.72
  12  12 -13    1.93    8.73
  12  12 -13   -3.74    6.02
  10 -12 -13   80.03    8.47
  10  12 -13   70.98   21.66
  10  12 -13   88.82   27.53
   8 -12 -13    3.01    5.05
   8 -12 -13    7.16    3.35
   8  12 -13    3.46    8.04
   8  12 -13    2.67    6.31
   8  12 -13    4.33    6.34
   6 -12 -13   49.77    6.87
   6 -12 -13   47.34   13.57
   6  12 -13   64.05   15.16
   6  12 -13   53.41   15.23
   6  12 -13   57.63   19.71
   4 -12 -13    0.47    3.81
   4 -12 -13   13.66    4.50
   4  12 -13    3.85    6.24
   4  12 -13    8.42    5.01
   4  12 -13    7.28    6.97
   2 -12 -13  110.29   21.68
  -2 -12  13  106.37   20.95
   2 -12 -13  117.27   13.00
   2  12 -13   96.15   10.42
   2  12 -13  114.55   13.92
   2  12 -13  142.17   28.11
   0 -12 -13   13.27    5.72
   0 -12 -13    0.08    5.42
   0 -12  13   15.59    7.21
   0  12 -13   17.01    4.31
   0  12 -13    0.46    5.83
  -2 -12 -13  162.14   19.41
  -2 -12 -13  190.66   23.97
   2 -12  13  185.23   17.40
  -2  12 -13  171.69   19.52
   2  12  13  164.47    7.89
   4 -12  13    8.85    4.25
  -4 -12 -13   11.03    8.06
  -4  12 -13   12.55    6.41
   6 -12  13   53.97   11.10
   6  12  13   57.52   12.93
   8 -12  13   17.41    5.53
   8  12  13    1.83    7.09
  10 -12  13  135.03   15.01
  10  12  13  146.54   21.02
  12 -12  13   10.17    6.16
  12  12  13    0.06    8.52
  11 -13 -13   38.82    7.83
  11  13 -13   11.01   12.62
  11  13 -13   26.84   16.53
   9 -13 -13   14.28    5.14
   9  13 -13   36.60   14.51
   9  13 -13    7.37   10.64
   7 -13 -13   32.39    6.98
   7 -13 -13   18.63    9.35
   7  13 -13   21.10   13.26
   7  13 -13    5.89    7.24
   5 -13 -13   53.82   15.42
   5 -13 -13   44.15    8.97
   5  13 -13   75.90   22.20
   5  13 -13   85.20   18.94
   5  13 -13   89.10   12.03
   3 -13 -13   70.09   17.58
   3  13 -13   40.96   10.76
   3  13 -13   37.48    8.14
   3  13 -13   25.87   12.72
   1 -13 -13   82.59   16.28
   1 -13 -13   71.03   19.00
  -1 -13  13  137.01   17.67
   1  13 -13  121.81   11.70
   1  13 -13  149.72   20.89
   1  13 -13  127.01    9.82
   1 -13  13   49.48   12.57
  -1 -13 -13   80.01   20.73
  -1  13 -13   39.90   13.22
  -3 -13 -13   38.55   14.30
  -3  13 -13  104.26   20.60
   3  13  13   39.02    4.55
   5 -13  13   28.76    8.77
  -5  13 -13   29.32   10.10
   7 -13  13   73.73   10.37
   9 -13  13   43.23    9.95
   9  13  13   70.65   18.96
  11 -13  13   32.23   10.88
  11  13  13   12.29   11.94
  10 -14 -13   12.64    4.36
  10  14 -13    9.20    8.88
  10  14 -13    0.90    6.85
   8 -14 -13  111.84   10.39
   8 -14 -13  131.85   17.15
   8  14 -13  111.65   31.28
   8  14 -13  138.77   26.84
   6 -14 -13    8.72    7.57
   6 -14 -13   13.97    5.25
   6  14 -13   10.51    8.39
   6  14 -13    0.64    5.73
   6  14 -13    4.02    6.76
   4 -14 -13  146.56   20.46
   4 -14 -13  145.55   15.19
   4  14 -13  154.35   17.59
   4  14 -13  143.74   14.19
   4  14 -13  192.16   37.24
   2 -14 -13    5.25    8.19
   2 -14 -13    9.41    6.27
   2  14 -13   10.89    5.21
   2  14 -13    0.59    6.82
   0 -14 -13  137.47   18.18
   0 -14 -13  102.07   26.23
   0 -14  13  107.64   20.51
   0  14 -13  124.62   27.12
  -2 -14 -13   19.05    9.91
  -2  14 -13    0.27    5.85
   6 -14  13   16.50    6.71
   6  14  13    0.53    4.65
   6  14  13    0.78    4.63
   8 -14  13  147.40   15.05
   8  14  13  141.14   17.46
   7 -15 -13   26.54   12.08
   7 -15 -13    9.28    7.51
   7  15 -13   33.23   13.66
   7  15 -13   26.89   16.18
   5 -15 -13   62.26   13.62
   5 -15 -13   41.75   16.05
   5  15 -13   23.94   10.56
   5  15 -13    1.89    9.06
   3 -15 -13   17.70    9.46
   3 -15 -13    8.08    9.90
   3  15 -13   14.53   10.83
   1 -15 -13   34.21   13.23
   1  15 -13    7.67    9.07
   1 -15  13   41.78   12.75
  -1 -15 -13   26.95   13.46
  -1  15 -13   15.75   11.42
   3 -15  13   34.66   10.62
  -3  15 -13   29.05   11.09
   5 -15  13   54.46   12.60
   7 -15  13   18.39    8.98
   7  15  13   -2.70    3.55
   7  15  13    0.34    5.30
   6 -16 -13  173.53   18.61
   6 -16 -13  151.89   21.63
   6  16 -13  161.34   35.37
   4 -16 -13    3.85    7.38
   4 -16 -13    2.04    7.76
   4  16 -13   -0.30    2.71
   4  16 -13    3.94    8.72
   4  16 -13    1.33    3.66
   2 -16 -13  130.61   24.97
   2  16 -13   78.28   21.81
   0 -16 -13    9.46    8.49
   0  16 -13   -0.34    6.18
   2 -16  13   67.67   16.23
  -2  16 -13   74.37   20.52
   4 -16  13   14.59    6.91
  -4  16 -13   -2.24    4.14
   6 -16  13   67.35   15.29
   3 -17 -13   35.21   15.69
   3  17 -13   10.47   11.62
   1 -17 -13    9.80   12.72
   1  17 -13   20.06   13.62
  -1  17 -13   20.19   11.97
  16   0 -14  165.16   23.10
  14   0 -14   11.43    7.81
  12   0 -14   47.09   12.67
  12   0 -14   60.35   16.58
  10   0 -14   -2.40    4.35
  10   0 -14   -2.76    3.38
   8   0 -14  101.11   13.75
   8   0 -14   95.79   11.67
   6   0 -14   -1.43    2.86
  -4   0  14 2281.72   65.84
   2   0 -14    0.73    3.28
  -2   0  14    0.76    3.54
   0   0  14 2285.67   59.50
   0   0 -14 2139.62   58.52
   2   0  14   -4.01    2.73
  -2   0 -14   -0.31    3.24
   4   0  14  126.28   11.78
  -4   0 -14  133.13   13.32
  -6   0 -14    7.50    4.91
   6   0  14    0.52    4.84
  -6   0 -14    3.03    4.42
  -8   0 -14  564.57   32.94
  -8   0 -14  494.82   30.25
   8   0  14  561.64   30.10
  10   0  14   -2.19    4.31
 -10   0 -14    1.75    4.12
 -10   0 -14    1.91    6.31
 -12   0 -14  221.69   24.32
 -12   0 -14  231.56   22.80
  12   0  14  244.92   23.29
 -14   0 -14   -2.58    5.03
  14   0  14   -1.15    5.66
  16   0  14  101.75   23.46
  17  -1 -14   32.39   13.45
  17   1 -14   15.09   12.35
  15   1 -14   97.87   22.51
  13  -1 -14   76.47   18.04
  13  -1 -14   85.43   19.24
  11  -1 -14   53.61   13.18
  11   1 -14   85.21   16.53
  11   1 -14   84.82   17.77
   9  -1 -14   51.29   11.36
   9  -1 -14   44.00   12.26
   9   1 -14   20.79    8.30
   9   1 -14   17.73    8.26
   7  -1 -14    2.94    4.15
   7   1 -14   15.27    6.31
   7   1 -14    6.48    5.34
  -5  -1  14   75.66   10.78
   5   1 -14   65.84    8.39
   3  -1 -14   98.31    9.48
  -3   1  14  140.21   12.40
   1  -1 -14  333.76   17.50
  -1   1  14  288.64   16.86
   1  -1  14  254.54   15.58
  -1   1 -14  216.76   14.77
  -3  -1 -14  441.85   24.02
   3   1  14  437.70   21.31
  -5  -1 -14   69.51   13.78
  -5  -1 -14   55.97   12.04
   5   1  14   56.10   10.63
   7  -1  14   70.56   13.19
  -7   1 -14   82.65   11.83
  -7   1 -14   91.42   17.18
  -9  -1 -14  117.53   15.54
  -9  -1 -14  101.86   14.22
   9   1  14   90.73   17.36
 -11  -1 -14   35.63   12.70
  11  -1  14    9.96    7.77
 -11  -1 -14   54.99   17.12
 -11   1 -14   22.21    8.91
  11   1  14   42.71   12.86
 -11   1 -14    8.31    7.98
  13  -1  14   97.87   19.07
 -13  -1 -14   62.58   18.21
 -13   1 -14  107.27   20.01
 -15  -1 -14   42.04   17.97
  15  -1  14   31.55   13.21
  15   1  14   67.68   18.76
  16  -2 -14    0.63    5.31
  16   2 -14   -0.56    4.60
  14  -2 -14  121.99   17.17
  14  -2 -14  120.98   17.09
  14   2 -14  100.30   23.44
  12  -2 -14    1.91    5.34
  12  -2 -14    2.01    5.41
  12   2 -14    7.18    7.74
  12   2 -14    5.14    5.93
  10  -2 -14  238.97   21.21
  10  -2 -14  251.87   19.52
  10   2 -14  269.33   25.34
  10   2 -14  249.12   20.83
   8  -2 -14   -3.77    3.36
   8   2 -14   -0.68    4.44
   8   2 -14    0.84    4.64
   6  -2 -14   71.84    8.78
   6   2 -14   69.16    9.75
   6   2 -14   76.27   14.83
   4  -2 -14    0.46    3.02
  -4  -2  14    4.05    4.60
  -4   2  14   -0.61    2.84
   4   2 -14    0.49    3.19
  -2  -2  14  770.68   31.86
   2  -2 -14  736.80   27.41
   2   2 -14  756.82   28.24
  -2   2  14  756.92   28.78
   0  -2  14    1.85    3.56
   0  -2 -14   -0.98    2.92
   0   2  14    4.33    4.00
   0   2 -14    2.19    3.43
   2  -2  14  700.93   27.88
  -2  -2 -14  680.83   29.71
   2   2  14  642.00   26.31
  -2   2 -14  677.53   28.21
  -4  -2 -14    4.49    4.51
   4  -2  14   -1.16    3.31
  -4   2 -14    7.36    4.56
   4   2  14    2.32    4.00
  -6  -2 -14  282.58   21.99
   6  -2  14  238.25   17.33
  -6  -2 -14  242.20   20.65
  -6   2 -14  259.79   19.32
   6   2  14  263.37   18.93
  -8  -2 -14    9.67    6.13
  -8  -2 -14    4.08    3.30
   8  -2  14    1.95    5.35
  -8   2 -14    2.25    5.02
  -8   2 -14    4.50    4.08
   8   2  14    5.39    5.95
 -10  -2 -14  114.83   22.08
 -10  -2 -14   85.32   19.10
  10  -2  14   94.81   17.57
 -10   2 -14  110.54   15.10
  10   2  14   83.22   17.89
 -10   2 -14   87.66   12.18
  12  -2  14    1.08    6.04
 -12  -2 -14    3.53    5.16
 -12   2 -14    0.95    4.91
  12   2  14    1.71    6.40
  14  -2  14  168.18   20.21
 -14   2 -14  138.58   17.60
  14   2  14  145.43   20.02
  16  -2  14    0.30    6.51
  16   2  14    9.78   10.26
 -16   2 -14    1.17    4.05
  17  -3 -14    4.65    6.91
  17   3 -14   21.01   15.02
  17   3 -14   16.55   11.21
  15  -3 -14   61.51   15.99
  15   3 -14   30.65   14.79
  13  -3 -14   13.42    9.14
  13  -3 -14   25.64    9.38
  13   3 -14   54.63   16.11
  11  -3 -14  109.49   13.52
  11  -3 -14   97.93   14.14
  11   3 -14   61.71   18.37
   9  -3 -14   57.32   13.89
   9  -3 -14   64.27   12.03
   7  -3 -14   77.13    9.40
   7   3 -14   57.19   12.42
   7   3 -14   46.56   14.09
  -5  -3  14  100.82   13.40
   5   3 -14  102.04   13.73
   5   3 -14  105.80   11.18
   3  -3 -14  101.41    9.33
  -3   3  14  107.61    9.98
   1  -3 -14    9.61    4.52
  -1  -3  14   34.22    8.47
  -1   3  14   16.94    5.85
   1   3 -14   39.21    8.37
   1  -3  14   39.16    8.62
  -1   3 -14   48.78    9.31
   3  -3  14  458.89   22.20
  -3   3 -14  421.68   22.34
  -5  -3 -14  190.80   18.57
  -5  -3 -14  191.30   17.93
   5   3  14  206.48   16.05
  -7  -3 -14   71.25   15.87
  -7  -3 -14   67.88   14.37
   7   3  14   51.28   12.74
   9  -3  14   56.81   13.05
  -9   3 -14   77.35   11.28
  -9   3 -14   50.01   11.05
  11  -3  14    8.90    7.51
 -11  -3 -14    3.10    7.43
  11   3  14   -0.32    4.54
 -11   3 -14    2.53    3.83
  13  -3  14   20.01    9.30
 -13   3 -14   22.05    8.75
  13   3  14   86.27   19.46
  15  -3  14   41.76   14.84
  15   3  14    3.57    7.28
  16  -4 -14   64.49   17.55
  16   4 -14   58.05   19.71
  14  -4 -14   -0.41    5.90
  14  -4 -14    1.47    4.88
  14   4 -14    6.91    7.44
  12  -4 -14  218.12   20.12
  12  -4 -14  214.03   19.10
  12   4 -14  195.52   24.51
  10  -4 -14    4.46    5.11
  10  -4 -14   -1.64    4.49
  10   4 -14    6.17    7.61
   8  -4 -14  395.15   21.62
   8   4 -14  418.39   32.05
   6  -4 -14   -2.79    2.95
   6   4 -14    4.08    5.23
   6   4 -14   -0.67    3.53
  -4  -4  14  217.83   19.04
   4  -4 -14  217.52   13.27
   4   4 -14  239.67   20.58
   4   4 -14  206.09   14.88
   2  -4 -14   -1.06    2.59
  -2  -4  14    1.96    4.15
   2   4 -14   -1.44    2.84
   2   4 -14   -0.86    2.48
  -2   4  14    1.85    2.87
   0  -4 -14  608.69   26.20
   0  -4  14  623.05   27.75
   0   4  14  650.49   24.61
   0   4 -14  655.68   26.06
   2  -4  14   -2.55    3.19
  -2  -4 -14    0.33    3.97
   2   4  14   -1.27    3.39
  -2   4 -14    2.41    3.38
   4  -4  14  461.22   22.52
  -4  -4 -14  387.51   25.36
  -4  -4 -14  449.28   28.82
   4   4  14  432.33   22.45
  -4   4 -14  474.57   23.71
  -6  -4 -14    8.54    6.15
   6  -4  14   -2.62    3.63
  -6  -4 -14    5.46    6.40
  -6   4 -14    0.05    4.06
   6   4  14   -1.35    4.04
  -8  -4 -14  283.12   25.74
  -8  -4 -14  298.52   26.70
   8  -4  14  318.06   21.39
   8   4  14  321.37   23.61
  -8   4 -14  338.94   20.64
  -8   4 -14  317.66   21.93
 -10  -4 -14    0.51    5.35
  10  -4  14   -5.44    3.14
  10   4  14   -0.15    5.20
 -10   4 -14    2.74    5.35
 -10   4 -14    0.59    3.39
  12  -4  14  134.03   16.70
  12   4  14  152.34   18.95
  14  -4  14    5.62    9.34
  14   4  14    3.05    7.24
  16  -4  14  116.94   24.81
  16   4  14  121.29   25.80
  15  -5 -14   27.72    9.56
  15   5 -14   67.91   20.38
  13  -5 -14   67.34   15.45
  13  -5 -14   72.15   15.59
  13   5 -14   38.43   14.65
  11  -5 -14   61.78   13.62
  11  -5 -14   63.27   12.87
  11   5 -14  107.18   21.79
   9  -5 -14  102.19   10.99
   9   5 -14   48.03   16.40
   7  -5 -14    4.90    4.52
   7   5 -14   11.99    8.63
   7   5 -14   25.77    8.74
  -5  -5  14   66.21   15.27
   5   5 -14   53.27   10.68
   5   5 -14   72.82   16.25
  -3  -5  14  149.01   15.46
   3   5 -14  156.38   17.15
   3   5 -14  157.03   12.79
  -1  -5  14   55.97   11.88
   1   5 -14   38.47    8.37
   1   5 -14   47.99   11.16
  -1  -5 -14   36.50   11.05
  -1  -5 -14   25.51    7.63
   1   5  14   36.12    7.72
  -3  -5 -14  124.25   13.95
  -3  -5 -14  130.75   15.30
   3   5  14  141.41   11.95
   5  -5  14   33.76    8.62
  -5  -5 -14    8.44    7.24
  -5  -5 -14   14.90    7.46
   5   5  14    8.10    5.39
  -5   5 -14   25.67    7.75
  -7  -5 -14   88.14   18.38
  -7  -5 -14   83.06   18.84
   7   5  14   86.35   16.00
   9  -5  14   81.39   11.87
  -9   5 -14   86.21    9.76
  -9   5 -14   91.28   11.37
  11  -5  14   11.09    7.93
 -11  -5 -14   15.78   14.27
  11   5  14   17.69    8.78
  13  -5  14   66.08   16.23
  13   5  14   33.95   12.77
  15  -5  14   11.00   10.28
  15   5  14   22.84   11.50
  16   6 -14   10.32   10.64
  16   6 -14    3.70    8.40
  14  -6 -14  177.91   19.15
  14  -6 -14  143.82   16.71
  14   6 -14  183.52   37.00
  12  -6 -14    4.88    4.97
  12  -6 -14   -1.88    4.99
  12   6 -14    7.73   10.22
  10  -6 -14  528.14   26.70
  10   6 -14  483.06   39.48
   8  -6 -14    3.58    4.20
   8   6 -14   -1.52    4.98
   8   6 -14    1.54    3.10
   6  -6 -14   65.42    7.94
   6   6 -14   65.68   17.28
   6   6 -14   74.97   14.25
   4  -6 -14   -0.27    2.97
  -4  -6  14    3.27    6.25
   4   6 -14    3.47    5.44
   4   6 -14    1.00    4.29
  -2  -6  14  457.91   26.74
   2  -6 -14  445.28   20.63
   2   6 -14  424.93   28.20
  -2   6  14  449.92   17.99
   2   6 -14  466.61   22.01
   0  -6 -14    0.17    3.04
   0  -6 -14    5.73    3.81
   0  -6  14    1.55    3.93
   0   6 -14    2.62    3.61
   0   6 -14    4.51    4.68
   0   6  14    1.31    3.25
  -2  -6 -14  695.37   37.65
  -2  -6 -14  769.75   34.56
   2  -6  14  782.36   31.13
   2   6  14  758.66   28.49
  -2   6 -14  784.10   34.73
  -2   6 -14  708.25   28.68
  -4  -6 -14    4.69    4.70
  -4  -6 -14    2.76    4.35
   4  -6  14    2.95    4.50
   4   6  14    1.72    3.85
  -4   6 -14    6.09    3.65
   6  -6  14   95.62   10.92
  -6  -6 -14  135.19   23.85
  -6  -6 -14  103.16   20.14
   6   6  14   87.41   11.98
  -6   6 -14   92.51   10.39
   8  -6  14    3.33    4.97
  -8  -6 -14    1.87    6.01
   8   6  14   -3.07    4.36
  -8   6 -14    6.67    4.99
 -10  -6 -14  129.95   28.58
  10  -6  14  101.22   13.25
  10   6  14   86.34   17.97
  12  -6  14   -3.62    4.62
  12   6  14    2.86    6.23
  14  -6  14  151.66   18.58
  14   6  14  144.60   19.98
  15  -7 -14   98.94   22.02
  15   7 -14   42.16   19.78
  15   7 -14   29.99   15.48
  13  -7 -14   24.54    8.98
  13  -7 -14   30.26   11.11
  13   7 -14   42.85   16.60
  11  -7 -14   78.98   11.23
  11  -7 -14   74.84   10.51
  11   7 -14   40.85   16.43
   9  -7 -14   26.29    7.52
   9   7 -14   58.69   16.32
   7  -7 -14   37.48    7.57
   7   7 -14   17.84   11.97
   7   7 -14    5.98    6.89
   5   7 -14   91.89   21.99
   5   7 -14   85.53   10.68
  -3  -7  14   43.49   12.91
   3   7 -14   36.64    8.42
   3   7 -14   47.42   14.19
   1  -7 -14   34.46    8.30
   1  -7 -14   34.45   10.65
   1   7 -14   78.61   15.65
  -1   7  14   36.57    6.81
  -1  -7 -14   52.06   12.50
   1  -7  14   22.40    8.17
  -1  -7 -14   58.81   11.87
  -1   7 -14   15.70    6.17
  -1   7 -14   23.12    8.25
   3  -7  14   84.01   10.24
  -3   7 -14   83.23    9.28
  -3   7 -14   86.93   11.31
   5  -7  14    7.34    5.36
  -5  -7 -14   22.47   10.11
  -5  -7 -14   23.99   10.78
   5   7  14   24.72    8.13
  -5   7 -14    8.10    5.01
  -7  -7 -14    7.37    8.13
   7  -7  14   30.59    8.56
  -7  -7 -14   32.74   11.45
   7   7  14   17.24    8.20
  -7   7 -14   25.28    7.10
  -7   7 -14   34.77    7.70
   9  -7  14   40.76   10.22
   9   7  14   63.31   14.81
  11  -7  14    8.99    7.29
  11   7  14    1.90    6.30
  13  -7  14   13.16    9.32
  13   7  14   42.16   14.46
  15  -7  14   11.04   10.00
  15   7  14    4.93    8.83
  14  -8 -14    2.85    7.40
  14   8 -14    4.81    7.66
  14   8 -14    7.11    8.72
  12  -8 -14  111.50   12.99
  12  -8 -14  122.52   13.88
  12   8 -14  152.29   33.81
  10  -8 -14    3.90    5.46
   8  -8 -14  261.92   15.54
   8   8 -14  228.53   27.59
   6  -8 -14    0.03    2.76
   6   8 -14    4.12    5.94
   6   8 -14    5.24    6.48
   4  -8 -14  274.70   21.33
   4  -8 -14  268.99   14.99
  -4  -8  14  243.31   22.55
   4   8 -14  245.14   17.17
   4   8 -14  230.58   24.16
   2  -8 -14    1.77    3.13
   2  -8 -14   10.76    5.80
  -2  -8  14    3.02    4.30
   2   8 -14   -1.26    5.13
   2   8 -14    3.60    4.09
   0  -8 -14  359.29   26.43
   0  -8  14  350.40   23.06
   0  -8 -14  364.82   21.72
   0   8 -14  371.51   26.68
   0   8 -14  374.49   19.47
   0   8  14  346.59   15.48
  -2  -8 -14    3.63    4.10
   2  -8  14    2.75    4.79
  -2  -8 -14   11.33    5.82
  -2   8 -14    3.31    4.66
  -2   8 -14    5.00    3.87
   2   8  14    3.47    4.08
   4  -8  14  249.60   17.31
  -4  -8 -14  252.97   24.81
  -4  -8 -14  242.61   21.87
  -4   8 -14  212.34   17.92
  -4   8 -14  252.54   15.15
   4   8  14  262.77   17.66
   6  -8  14   -2.07    3.96
  -6  -8 -14   -0.44    5.58
  -6   8 -14    1.53    2.99
  -6   8 -14    5.30    4.69
   6   8  14    5.88    6.14
  -8  -8 -14  232.26   25.48
   8  -8  14  199.85   16.64
   8   8  14  205.85   20.11
  10  -8  14    9.09    5.22
  10   8  14    3.50    6.50
  12  -8  14   91.84   16.71
  12   8  14   84.66   19.21
  14  -8  14    5.35    7.30
  14   8  14   12.06    9.27
  13  -9 -14   53.37   12.94
  13   9 -14   59.33   23.06
  11   9 -14  104.03   27.78
  11   9 -14   73.48   21.38
   9  -9 -14  113.67   10.19
   9  -9 -14  104.76   12.39
   9   9 -14   61.93   15.25
   7  -9 -14   41.18   10.29
   7  -9 -14   27.43    5.97
   7   9 -14   78.87   15.12
   7   9 -14   49.59   14.71
   5  -9 -14   94.53    8.65
   5  -9 -14  100.25   12.90
   3  -9 -14   35.12    7.72
   3  -9 -14   42.04   11.23
  -3  -9  14   62.95   14.80
   3   9 -14   68.67    8.96
   3   9 -14   78.96   19.90
  -1  -9  14   31.34    9.90
   1  -9 -14   71.43   16.81
   1   9 -14   20.61    6.76
   1   9 -14   34.84   12.50
  -1  -9 -14   30.30    9.04
  -1  -9 -14   35.87   12.43
   1  -9  14   58.39   12.24
  -1   9 -14   74.04   16.28
   1   9  14   27.26    5.99
   3  -9  14   61.07   11.74
  -3   9 -14   91.05   16.51
  -3   9 -14   81.98    8.34
   5  -9  14  117.37   12.36
  -5  -9 -14   58.69   15.94
  -5   9 -14   98.43   12.10
  -7  -9 -14  131.97   25.14
   7   9  14  105.30   18.06
   9  -9  14   62.18   12.89
  11  -9  14   -0.10    4.89
  11   9  14    9.06    8.67
  13  -9  14   34.81   11.24
  13   9  14   29.04   13.76
  14 -10 -14   73.25   17.23
  14  10 -14   50.11   18.36
  14  10 -14   73.16   24.06
  12 -10 -14    1.00    5.36
  12  10 -14    2.87    9.27
  12  10 -14    7.13    7.97
  10 -10 -14  144.78   14.73
  10 -10 -14  154.94   12.92
  10  10 -14  154.19   30.82
  10  10 -14  153.45   33.97
   8 -10 -14   16.36    6.61
   8 -10 -14    7.85    4.34
   8  10 -14    2.24    6.17
   6 -10 -14  246.88   14.28
   6 -10 -14  247.55   20.91
   6  10 -14  225.46   18.47
   6  10 -14  214.17   26.71
  -4 -10  14    3.82    5.36
   4 -10 -14    5.81    5.66
   4 -10 -14   10.00    3.91
   4  10 -14   10.14    5.49
   4  10 -14    5.58    7.93
   2 -10 -14  498.66   33.20
   2 -10 -14  578.01   26.58
  -2 -10  14  542.73   33.69
   2  10 -14  486.73   35.64
   2  10 -14  504.14   25.07
   0 -10  14    4.37    5.54
   0 -10 -14    6.46    5.90
   0 -10 -14   16.51    5.69
   0  10 -14    5.75    5.71
   0  10 -14    5.12    3.89
  -2 -10 -14  325.72   29.44
  -2 -10 -14  366.60   26.24
   2 -10  14  339.16   22.71
  -2  10 -14  354.05   26.98
   2  10  14  307.70   16.13
  -2  10 -14  373.86   17.72
  -4 -10 -14    4.30    3.92
  -4 -10 -14   14.54    6.32
   4 -10  14    7.94    5.65
  -4  10 -14    2.97    4.88
   4  10  14    5.93    5.17
   6 -10  14  151.78   14.23
  -6 -10 -14  139.16   20.07
  -6  10 -14  162.83   15.04
   6  10  14  128.16   14.44
   8 -10  14    4.94    5.44
   8  10  14    7.69    7.35
  10 -10  14   75.71   13.45
  10  10  14   60.16   16.27
  12 -10  14    3.72    5.83
  12  10  14   -2.95    6.09
  13 -11 -14    2.63    6.70
  13  11 -14    2.56    8.91
  13  11 -14   10.73   12.68
  11  11 -14   -0.73    7.63
  11  11 -14    5.28   10.34
   9  11 -14   34.26   16.01
   9  11 -14   40.15   15.64
   7 -11 -14    8.73    4.75
   7 -11 -14    5.85    6.58
   7  11 -14    3.41    8.03
   7  11 -14    5.24    5.91
   5 -11 -14   30.00    9.89
   5 -11 -14   39.10    7.96
   5  11 -14   57.46   14.69
   5  11 -14   74.55   13.00
   5  11 -14   58.66   16.79
  -3 -11  14   41.07   12.81
   3 -11 -14   74.03   17.14
   3  11 -14   29.71   13.80
   3  11 -14   36.50    8.14
  -1 -11  14   36.54   11.76
   1 -11 -14   35.24    9.03
   1 -11 -14   19.63    9.35
   1  11 -14   61.30    7.71
   1  11 -14   37.84   12.29
  -1 -11 -14   83.45   20.09
   1 -11  14   40.07   11.09
  -1  11 -14   32.56   12.76
  -1  11 -14   45.82    6.27
  -1  11 -14   36.90    8.51
  -3 -11 -14   64.82   18.98
  -3 -11 -14   53.74   14.08
   3  11  14   44.43    8.48
  -5 -11 -14   64.33   17.11
   5  11  14   39.03    9.82
   7 -11  14   97.33   11.61
   9  11  14  114.72   23.78
  11 -11  14   30.06    8.80
  11  11  14    3.39    8.38
  12 -12 -14   34.08    9.12
  12  12 -14   56.90   24.31
  12  12 -14   30.38   14.88
  10 -12 -14    2.91    3.91
  10  12 -14    4.17    8.77
  10  12 -14    8.10    7.27
   8 -12 -14   30.59    7.05
   8 -12 -14   36.56   12.12
   8  12 -14   42.42   15.45
   8  12 -14   45.76   19.26
   6 -12 -14    8.86    4.00
   6 -12 -14    3.90    5.91
   6  12 -14    3.62    6.18
   6  12 -14   -0.98    4.56
   6  12 -14    4.20    7.13
   4 -12 -14  295.49   26.70
   4 -12 -14  283.15   18.26
   4  12 -14  268.76   19.29
   4  12 -14  254.76   29.34
   4  12 -14  260.00   24.07
   2 -12 -14    2.39    7.01
  -2 -12  14    7.67    5.34
   2 -12 -14    7.06    6.13
   2  12 -14    2.56    3.48
   2  12 -14    5.28    5.65
   2  12 -14   14.19    4.99
   0 -12  14  265.97   23.22
   0 -12 -14  274.58   22.91
   0 -12 -14  236.48   25.95
   0  12 -14  274.22   15.10
   0  12 -14  254.62   26.16
   0  12 -14  248.18   17.47
  -2 -12 -14    6.78    7.24
  -2 -12 -14   14.18    8.81
   2 -12  14   11.20    5.85
   2  12  14    9.34    2.71
   2  12  14   12.75    3.15
  -2  12 -14    2.33    6.17
   4 -12  14   59.33   12.64
  -4 -12 -14   87.04   21.30
  -4  12 -14   56.15   13.97
   4  12  14   69.46   11.28
   6 -12  14    9.08    5.00
   6  12  14   -0.01    4.86
   8 -12  14  157.59   15.30
   8  12  14  123.34   16.33
  10 -12  14    8.09    6.12
  10  12  14    9.84    7.42
  11 -13 -14   13.00    5.61
  11  13 -14   24.30   14.75
  11  13 -14   35.87   19.53
   9 -13 -14   36.42    7.47
   9 -13 -14   28.31   10.23
   9  13 -14    6.11   10.25
   9  13 -14    7.34    9.57
   7 -13 -14    8.19    7.93
   7 -13 -14   11.69    4.90
   7  13 -14   27.18   12.15
   7  13 -14    3.74    9.60
   5 -13 -14   65.97   16.41
   5  13 -14   35.18   12.43
   5  13 -14   23.59    8.37
   5  13 -14   41.77   16.60
   3 -13 -14   25.09   10.15
   3 -13 -14   33.26    9.10
   3  13 -14   78.07   15.85
   3  13 -14   53.82   17.20
  -1 -13  14   52.03   13.99
   1 -13 -14   96.33   22.50
   1  13 -14   38.68   13.83
   1  13 -14   42.87    9.65
   1  13 -14   44.52    8.03
   1 -13  14   54.07   13.70
  -1 -13 -14   61.18   15.55
  -1  13 -14   74.08   18.36
  -3 -13 -14  135.02   26.14
  -3  13 -14   43.72   13.00
   3  13  14   81.21    6.70
   5  13  14   31.47    7.72
  -5  13 -14   56.72   13.41
   7 -13  14   42.24   10.46
   7  13  14   64.32   13.70
   9 -13  14   70.37   13.34
   9  13  14   30.24   10.61
  10 -14 -14  105.50   18.05
  10  14 -14   95.57   23.74
  10  14 -14   82.95   30.89
   8 -14 -14    7.79    4.95
   8 -14 -14    7.47    8.11
   8  14 -14   14.89    9.71
   8  14 -14    9.06    8.62
   6 -14 -14   78.11   19.36
   6 -14 -14   79.02   10.72
   6  14 -14   63.96   17.73
   6  14 -14   45.85   17.03
   6  14 -14   74.58   16.85
   4 -14 -14   11.22    5.34
   4 -14 -14    0.14    6.95
   4  14 -14    4.02    6.29
   4  14 -14   13.12    5.18
   4  14 -14   -3.49    3.59
   2 -14 -14  154.42   17.85
   2 -14 -14  127.90   26.79
   2  14 -14  140.69   13.84
   2  14 -14  125.71   26.68
   0 -14  14   13.05    6.83
   0 -14 -14   16.16    9.68
  -2 -14 -14  160.20   21.86
   2 -14  14  157.41   17.66
  -2  14 -14  129.92   19.11
   4 -14  14    8.22    4.75
  -4  14 -14    5.90    7.38
   4  14  14    0.36    2.25
   6 -14  14   92.88   12.97
   6  14  14   89.74   15.09
   8 -14  14   18.81    6.83
   8  14  14    4.34    6.63
   7 -15 -14   14.76   11.06
   7  15 -14   10.56    9.62
   7  15 -14    7.96    8.98
   7  15 -14   16.46   15.19
   5 -15 -14   10.85   11.05
   5 -15 -14   10.92    7.36
   5  15 -14   -1.69    3.77
   5  15 -14   10.86   10.50
   5  15 -14   29.92   11.75
   3 -15 -14   23.91   13.47
   3 -15 -14   14.86   10.48
   3  15 -14   14.75   13.09
   1 -15 -14    6.03    9.02
   1  15 -14   15.34   10.04
  -1 -15 -14   41.31   16.24
   1 -15  14   15.07    8.65
  -1  15 -14    7.80    8.98
   3 -15  14   58.36   14.38
  -3  15 -14   70.35   18.75
   5 -15  14   22.40    9.19
   5  15  14   -0.85    2.26
  -5  15 -14   -0.05    3.87
   5  15  14    0.43    2.15
   7 -15  14   42.11   11.48
   7  15  14   -0.81    4.95
   7  15  14    1.61    4.29
   6 -16 -14    5.18    7.87
   6 -16 -14   -1.91    6.47
   6  16 -14    2.13    4.86
   6  16 -14    4.81    8.54
   6  16 -14    0.88    6.56
   4 -16 -14   51.71   15.89
   4  16 -14   34.17   16.85
   2 -16 -14   13.28    9.64
   2  16 -14   13.74    7.98
   0 -16 -14   59.15   20.22
   0  16 -14   65.38   20.08
   2 -16  14    9.67    6.16
  -2  16 -14    9.23    9.82
   4 -16  14   67.74   16.56
   1  17 -14    8.18   11.34
  16   0 -15    6.96    7.70
  14   0 -15   45.06   16.00
  12   0 -15    4.80    5.71
  12   0 -15    6.68    7.26
  10   0 -15  566.12   31.34
  10   0 -15  591.92   36.76
   8   0 -15    1.37    4.45
   8   0 -15    3.08    4.91
   6   0 -15  358.02   20.54
   4   0 -15   -1.61    3.10
  -4   0  15    0.82    3.86
  -2   0  15  154.11   13.34
   2   0 -15  161.58   12.36
   0   0 -15    1.64    3.54
   0   0  15    1.89    3.70
   2   0  15  508.89   23.54
  -2   0 -15  505.44   25.13
   4   0  15    0.91    4.01
  -4   0 -15    6.47    5.18
   6   0  15  348.76   21.52
  -6   0 -15  291.64   22.22
  -6   0 -15  318.96   22.66
  -8   0 -15    3.20    3.05
  -8   0 -15    1.19    4.34
   8   0  15    3.14    5.75
 -10   0 -15  242.99   23.60
 -10   0 -15  219.27   21.47
  10   0  15  273.42   22.81
  12   0  15    3.61    6.96
 -12   0 -15    3.65    7.95
 -12   0 -15    6.11    6.11
 -14   0 -15  139.05   19.72
  14   0  15  161.76   20.29
  16   0  15    7.78   10.03
  17  -1 -15    7.08    9.87
  17   1 -15   39.50   16.79
  15  -1 -15   76.75   20.22
  15   1 -15   13.62   11.71
  13  -1 -15   26.16   10.02
  13  -1 -15   31.94   11.18
  13   1 -15   76.68   19.38
  11   1 -15   59.43   14.05
  11   1 -15   55.34   15.44
   9  -1 -15   40.52   11.38
   9  -1 -15   38.84   10.48
   9   1 -15   95.74   18.61
   7  -1 -15   26.58    7.91
   7   1 -15   14.68    6.72
   7   1 -15   18.27    8.58
   5  -1 -15   42.65    8.81
  -5   1  15   50.83   11.30
   3  -1 -15  101.71    9.65
  -3   1  15   87.38   10.65
  -1  -1  15  246.97   16.81
   1   1 -15  281.89   16.68
  -1  -1 -15  137.11   12.55
   1   1  15  185.68   13.28
   3  -1  15  306.18   17.93
  -3   1 -15  255.56   18.00
  -5  -1 -15   90.85   16.37
   5   1  15   78.31   10.32
  -7  -1 -15   82.40   16.67
  -7  -1 -15   81.43   12.02
   7   1  15   54.25   11.50
   9  -1  15   82.31   16.43
  -9   1 -15  105.40   13.89
  -9   1 -15  110.35   14.55
  11  -1  15   86.23   17.27
 -11  -1 -15   35.60   13.42
 -11   1 -15   70.58   17.33
 -11   1 -15   68.17   15.43
  13  -1  15   37.05   11.41
 -13   1 -15   43.65   13.43
  13   1  15   85.68   18.47
  15  -1  15   30.24   12.41
 -15   1 -15   -1.51    4.03
  15   1  15    7.21    8.61
  16  -2 -15   13.75   10.58
  16   2 -15   17.93   11.08
  14  -2 -15    2.30    5.91
  14   2 -15    2.41    5.59
  12  -2 -15  137.67   17.32
  12  -2 -15  134.03   16.11
  12   2 -15   97.08   19.25
  12   2 -15  110.95   22.56
  10  -2 -15    0.45    5.26
  10  -2 -15   -0.59    4.31
  10   2 -15    0.99    4.25
  10   2 -15    0.38    5.20
   8  -2 -15  442.62   23.94
   8   2 -15  434.39   30.71
   8   2 -15  435.82   26.05
   6  -2 -15   -3.34    2.43
   6   2 -15   -0.10    4.09
   6   2 -15    4.95    5.11
   4  -2 -15   50.38    8.79
  -4  -2  15   57.74   13.10
   4   2 -15   45.77    9.33
  -4   2  15   60.86   11.51
  -2  -2  15    1.04    3.67
   2  -2 -15    2.02    3.74
   2   2 -15   -3.96    2.67
  -2   2  15    1.29    3.50
   0  -2 -15   60.79    8.38
   0  -2  15   69.25    9.09
   0   2  15   59.82    8.24
   0   2 -15   61.04    8.26
   2  -2  15    2.65    4.33
  -2  -2 -15    1.02    3.89
  -2   2 -15    3.45    3.83
   2   2  15   -0.88    3.39
  -4  -2 -15  500.05   27.87
   4  -2  15  483.22   23.63
   4   2  15  514.78   24.73
  -4   2 -15  456.99   25.22
  -6  -2 -15    4.25    3.64
  -6  -2 -15    5.41    6.14
   6  -2  15   -1.62    3.62
  -6   2 -15    6.51    5.14
   6   2  15    2.50    5.03
  -8  -2 -15  248.73   22.71
   8  -2  15  246.16   19.60
  -8  -2 -15  245.47   22.75
   8   2  15  245.53   20.27
  -8   2 -15  267.95   20.62
  -8   2 -15  243.88   21.13
  10  -2  15    2.38    5.75
 -10  -2 -15    6.81    7.02
 -10  -2 -15    5.51    6.35
  10   2  15   -1.47    5.31
 -10   2 -15    3.66    6.50
 -10   2 -15    5.05    5.17
  12  -2  15  151.29   18.17
 -12  -2 -15  135.70   25.40
 -12   2 -15  127.93   16.12
  12   2  15  129.95   17.41
  14  -2  15    1.48    6.86
  14   2  15    0.92    6.16
 -14   2 -15   -3.02    3.87
  16  -2  15   75.63   19.33
  16   2  15   50.99   16.93
  17  -3 -15    3.69    7.42
  17   3 -15    2.79    8.72
  15  -3 -15   21.14    9.48
  15   3 -15   41.27   15.06
  13  -3 -15   51.75   14.29
  13  -3 -15   60.17   15.55
  11  -3 -15   91.00   16.57
  11   3 -15  140.75   16.95
  11   3 -15  139.55   19.69
   9   3 -15   84.90   17.49
   9   3 -15   91.00   13.07
   7  -3 -15   40.55    9.38
   7   3 -15   73.15   10.61
   7   3 -15   80.44   16.38
  -5  -3  15   37.80   11.45
   5   3 -15   31.65   10.06
   5   3 -15   22.78    7.27
  -3  -3  15   33.20    9.64
   3  -3 -15   13.79    5.21
  -3   3  15   20.22    6.37
   3   3 -15   29.72    7.33
   1  -3 -15   62.11    8.04
  -1  -3  15   19.09    7.14
  -1   3  15   38.24    7.97
   1   3 -15   18.61    6.19
  -1  -3 -15   38.12    9.17
   1   3  15   41.63    8.73
  -3  -3 -15  304.72   21.41
   3   3  15  355.12   19.31
  -5  -3 -15   55.15   12.75
  -5  -3 -15   56.13   12.94
   5   3  15   42.01   10.00
  -7  -3 -15  170.21   18.66
  -7  -3 -15  149.04   17.51
   7   3  15  163.56   16.39
  -9  -3 -15   69.33   16.69
  -9  -3 -15   64.69   15.64
   9   3  15   40.46   12.25
  11  -3  15    7.42    6.90
 -11  -3 -15   13.91   10.18
 -11   3 -15    4.97    8.29
 -11   3 -15   15.75    6.73
  11   3  15    4.28    6.57
  13  -3  15   66.37   15.83
 -13   3 -15   49.49   12.23
  15  -3  15   15.87   11.65
  15   3  15   36.46   13.78
  16  -4 -15   -2.53    5.15
  16   4 -15   -0.84    6.36
  14  -4 -15  105.61   15.43
  14  -4 -15  133.13   16.93
  14   4 -15  100.03   23.93
  12  -4 -15   -0.82    5.28
  12  -4 -15    4.69    5.35
  12   4 -15    3.99    6.36
  10  -4 -15  430.81   25.14
  10  -4 -15  410.71   27.27
  10   4 -15  434.97   34.63
   8  -4 -15   -0.13    4.05
   8   4 -15   -1.41    4.89
   8   4 -15    2.56    5.75
   6  -4 -15  269.56   16.20
   6   4 -15  277.48   19.46
   6   4 -15  317.26   26.14
  -4  -4  15    1.37    4.62
   4  -4 -15   -0.02    3.42
   4   4 -15    1.44    4.04
  -4   4  15    1.41    3.85
   4   4 -15    0.10    3.22
   2  -4 -15  223.98   14.31
  -2  -4  15  216.77   17.65
   2   4 -15  208.24   14.39
  -2   4  15  215.17   13.87
   0  -4  15    0.24    4.05
   0  -4 -15    2.09    3.47
   0   4 -15    1.06    3.59
   0   4  15    2.88    3.45
  -2  -4 -15  857.64   36.22
   2  -4  15  901.26   33.63
   2   4  15  857.40   31.75
  -2   4 -15  835.96   32.88
  -4  -4 -15    4.71    5.02
   4  -4  15   -0.62    4.17
  -4  -4 -15    4.58    4.87
  -4   4 -15    0.60    3.32
   4   4  15    8.12    5.36
   6  -4  15   79.02   10.58
  -6  -4 -15   74.97   16.80
  -6  -4 -15  105.63   19.50
   6   4  15   84.02   11.73
  -6   4 -15   96.14   11.86
  -8  -4 -15    9.58    5.99
   8  -4  15    6.63    6.41
  -8  -4 -15   12.72    6.18
  -8   4 -15    5.66    3.41
  -8   4 -15    5.22    6.18
   8   4  15   -0.78    4.97
 -10  -4 -15   36.77   14.85
  10  -4  15   35.10   10.14
  10   4  15   21.24   10.07
 -10   4 -15   31.98   10.61
 -10   4 -15   27.82    9.01
  12  -4  15   -2.92    4.94
  12   4  15    1.76    5.93
 -12   4 -15    4.45    5.29
  14  -4  15   60.69   16.63
  14   4  15   33.96   11.64
  16  -4  15   -1.55    7.69
  16   4  15    9.35    9.66
  15  -5 -15   49.45   13.26
  15   5 -15   50.60   18.75
  13  -5 -15   32.08   10.75
  13  -5 -15   34.62   11.70
  13   5 -15   76.34   20.73
  11  -5 -15  187.16   18.60
  11  -5 -15  166.71   15.77
   9  -5 -15   55.80   11.37
   9   5 -15  129.61   24.25
   7  -5 -15   37.04    8.38
   7   5 -15   13.46    7.40
   7   5 -15   21.94    9.77
  -5  -5  15  163.63   18.21
   5   5 -15  141.60   18.01
   5   5 -15  169.54   14.60
  -3  -5  15   43.37   11.51
   3   5 -15   37.57    8.76
   3   5 -15   48.27   12.35
  -1  -5  15  148.33   14.76
   1   5 -15  154.16   16.27
   1   5 -15  158.94   13.07
   1  -5  15   38.38    9.49
  -1   5 -15   23.71    7.13
  -3  -5 -15   47.74   12.09
  -3  -5 -15   48.89   13.25
   3   5  15   30.80    7.77
  -5  -5 -15   27.84   10.63
  -5  -5 -15   20.64    8.07
   5  -5  15   12.70    6.44
   5   5  15   23.55    7.47
  -5   5 -15   12.96    5.04
  -7  -5 -15   52.50   14.22
  -7  -5 -15   47.38   14.45
   7   5  15   38.19   10.81
  -9  -5 -15  133.17   27.22
   9  -5  15   56.85   12.85
  -9   5 -15   55.44   12.33
  -9   5 -15   48.69   10.54
  11  -5  15   27.56   10.05
  11   5  15    5.61    7.71
  13  -5  15   16.33    9.27
  13   5  15   30.40   11.33
  15  -5  15   25.17   11.61
  15   5  15    0.59    6.64
  16  -6 -15  107.65   20.52
  16   6 -15   87.04   27.04
  16   6 -15  103.23   28.39
  14  -6 -15   -0.04    5.18
  14  -6 -15    4.22    7.49
  14   6 -15   12.56    8.56
  12  -6 -15  218.21   19.40
  12  -6 -15  207.95   18.29
  12   6 -15  193.18   26.22
  10  -6 -15    2.23    5.21
  10   6 -15    4.92    6.04
   8  -6 -15   86.61    9.94
   8   6 -15  119.27   14.23
   8   6 -15   89.70   19.32
   6  -6 -15    2.26    4.12
   6   6 -15    4.70    6.27
   6   6 -15    0.18    5.06
  -4  -6  15  562.31   33.58
   4  -6 -15  572.37   23.67
   4   6 -15  549.50   26.34
   4   6 -15  631.70   37.45
   2  -6 -15    2.66    3.71
  -2  -6  15    1.60    5.08
   2   6 -15    1.19    3.69
  -2   6  15    3.65    3.41
   2   6 -15    1.98    5.43
   0  -6 -15  510.30   25.87
   0  -6  15  579.43   28.87
   0  -6 -15  546.24   31.90
   0   6  15  607.51   23.25
   0   6 -15  569.81   24.99
   0   6 -15  535.27   30.72
  -2  -6 -15    4.98    5.38
  -2  -6 -15    1.90    4.31
   2  -6  15    2.37    4.85
   2   6  15    2.09    3.81
  -2   6 -15    5.02    4.29
  -4  -6 -15  119.85   15.48
   4  -6  15  113.84   12.15
  -4  -6 -15  110.17   15.34
  -4   6 -15  127.93   12.26
   4   6  15  127.64   12.62
   6  -6  15    1.32    4.89
  -6  -6 -15    2.06    5.67
  -6  -6 -15    7.57    4.47
  -6   6 -15    8.45    5.40
   6   6  15    0.91    4.88
   8  -6  15   54.92   12.56
  -8  -6 -15   31.95   11.84
  -8   6 -15   60.82   11.99
   8   6  15   53.32   13.29
  10  -6  15    2.29    5.60
 -10  -6 -15   -1.87    5.05
  10   6  15   -2.32    5.50
  12  -6  15   86.35   16.34
  12   6  15   70.93   17.80
  14  -6  15    7.05    8.01
  14   6  15    8.28    8.75
  15   7 -15   38.42   16.40
  15   7 -15   16.42   15.86
  13  -7 -15   56.65   13.11
  13  -7 -15   80.66   16.20
  13   7 -15   40.26   17.36
  11  -7 -15   61.91   12.18
  11  -7 -15   44.44   10.56
   9  -7 -15   98.16   10.87
   9   7 -15   46.89   17.09
   7   7 -15   48.69   14.25
   7   7 -15   55.75   11.91
  -5  -7  15   27.44   11.50
   5  -7 -15   53.72    9.09
   5   7 -15    8.01    7.01
   5   7 -15   27.48    9.14
  -3  -7  15  104.17   18.94
   3   7 -15  112.76   20.41
   3   7 -15  102.70   11.24
   1  -7 -15   87.71   12.73
   1  -7 -15   88.38   10.46
  -1   7  15   84.98    8.22
  -1  -7 -15   23.68    8.42
   1  -7  15   53.63   11.36
  -1  -7 -15   25.54    9.40
   1   7  15   29.76    7.27
  -1   7 -15   53.00   12.75
  -3  -7 -15   83.29   18.90
   3  -7  15   19.80    7.42
  -3  -7 -15   78.54   15.64
  -3   7 -15   41.56    8.83
   3   7  15   64.88    8.91
  -3   7 -15   27.80    9.12
  -5  -7 -15   16.12    7.96
  -5  -7 -15    5.32    6.75
   5  -7  15   28.42    8.41
  -5   7 -15   22.78    7.02
  -5   7 -15   25.75    8.23
   5   7  15    5.74    5.59
  -7  -7 -15   54.92   15.09
  -7  -7 -15   57.78   15.84
   7   7  15   55.80   12.37
  -9  -7 -15   42.65   14.75
   9   7  15   23.59   10.62
  11  -7  15    2.22    5.54
  11   7  15   20.54    9.72
  13  -7  15   37.40   14.10
  13   7  15    9.58   10.06
  15  -7  15    2.49    7.85
  15   7  15    3.99    9.48
  14  -8 -15   84.50   20.88
  14   8 -15   83.59   24.75
  14   8 -15   80.46   27.07
  12  -8 -15    6.15    4.48
  12  -8 -15   -1.58    5.10
  12   8 -15   13.39   10.14
  10  -8 -15  375.00   21.69
   8  -8 -15    0.68    3.77
   8   8 -15    3.32    5.04
   6  -8 -15  164.04   11.80
   6   8 -15  143.63   20.87
   6   8 -15  161.70   16.03
  -4  -8  15    7.90    6.63
   4  -8 -15    6.35    5.21
   4  -8 -15    6.70    4.13
   4   8 -15    7.34    5.89
   4   8 -15    2.19    5.42
   2  -8 -15   99.72   10.66
  -2  -8  15  121.12   21.19
   2  -8 -15  107.67   14.14
   2   8 -15  115.31   21.06
   2   8 -15  101.64   11.37
   0  -8 -15    5.18    4.74
   0  -8 -15    5.33    3.78
   0  -8  15    2.13    4.61
   0   8 -15    7.16    4.56
   0   8 -15    2.99    5.10
   0   8  15    2.48    3.26
   2  -8  15  364.43   22.31
  -2  -8 -15  382.98   29.49
  -2  -8 -15  367.06   25.04
  -2   8 -15  347.56   19.29
  -2   8 -15  349.09   24.94
   2   8  15  374.86   19.27
  -4  -8 -15   -1.31    4.97
  -4  -8 -15    6.47    4.78
   4  -8  15    1.14    4.49
  -4   8 -15    1.97    3.80
  -4   8 -15   10.71    3.69
   4   8  15    0.64    4.67
   6  -8  15   80.67   13.57
  -6  -8 -15   99.65   21.24
  -6   8 -15   63.02   11.89
   6   8  15   77.66   14.40
  -6   8 -15   77.73    8.55
  -8  -8 -15    5.55    5.42
   8  -8  15    0.59    5.06
  -8  -8 -15   11.83    9.69
   8   8  15   -2.06    5.92
  10  -8  15   41.15   10.97
  10   8  15   24.69   11.09
  12  -8  15    2.15    6.21
  12   8  15   -2.56    6.29
  14  -8  15   49.94   16.69
  14   8  15   35.21   16.39
  13  -9 -15   17.15    9.78
  13   9 -15   27.56   14.60
  13   9 -15   40.63   15.83
  11  -9 -15   91.57   11.40
  11   9 -15   39.02   15.43
   9  -9 -15   58.17    8.21
   9   9 -15  157.80   32.49
   7  -9 -15   94.13   12.61
   7  -9 -15   87.76    8.59
   7   9 -15   57.11   18.57
   5  -9 -15   36.56   10.01
   5  -9 -15   52.57    7.00
   5   9 -15   93.77   23.52
  -3  -9  15   37.62   12.21
   3  -9 -15   75.36   15.89
   3   9 -15   27.22    7.59
   3   9 -15    9.11    7.86
   1  -9 -15   31.98   10.40
  -1  -9  15   49.09   12.65
   1   9 -15   49.25    9.86
   1   9 -15   48.98   14.07
   1  -9  15   33.92   10.01
  -1  -9 -15   84.62   17.58
  -1   9 -15   35.76    8.16
  -1   9 -15   25.59    9.54
   3  -9  15  152.76   14.75
  -3   9 -15  180.60   12.85
  -3   9 -15  169.70   17.54
  -5  -9 -15  102.14   20.50
   5  -9  15   30.85    9.09
  -5   9 -15   51.95    5.84
   5   9  15   91.32   11.77
  -5   9 -15   53.18   11.49
  -7  -9 -15   44.92   15.27
   7   9  15   41.79   12.30
   9  -9  15   25.82    8.66
   9   9  15   68.09   16.74
  11  -9  15    2.13    6.11
  11   9  15    1.25    7.47
  13  -9  15   15.32   10.43
  13   9  15   41.44   16.20
  14  10 -15    2.13    6.64
  12 -10 -15  103.50   13.56
  12  10 -15   83.86   24.10
  12  10 -15   88.71   23.75
  10 -10 -15    5.65    5.00
  10 -10 -15    4.13    5.02
  10  10 -15    4.68    9.54
  10  10 -15   18.24   10.28
   8 -10 -15  335.99   17.54
   8 -10 -15  359.16   25.15
   8  10 -15  310.62   25.76
   8  10 -15  327.05   34.87
   6 -10 -15   15.45    4.21
   6 -10 -15   10.93    5.12
   6  10 -15    1.44    5.62
   6  10 -15    6.88    5.98
   4 -10 -15  165.98   18.39
  -4 -10  15  148.31   19.10
   4 -10 -15  154.48   12.40
   4  10 -15  144.10   13.82
   4  10 -15  117.58   23.52
  -2 -10  15    6.15    6.89
   2 -10 -15   13.03    6.81
   2 -10 -15   18.18    5.71
   2  10 -15    9.53    4.81
   2  10 -15    2.60    5.38
   0 -10  15   58.59   14.60
   0 -10 -15   52.34   16.01
   0 -10 -15   58.77   12.80
   0  10 -15   32.68   12.42
   0  10 -15   53.17    7.68
   2 -10  15    5.27    5.46
  -2 -10 -15   14.25    6.11
  -2 -10 -15    7.90    5.09
   2  10  15    4.93    4.50
  -2  10 -15    6.41    5.03
   4 -10  15  288.76   20.32
  -4 -10 -15  270.92   28.73
  -4 -10 -15  319.56   26.95
   4  10  15  268.86   18.28
  -4  10 -15  293.65   23.29
  -6 -10 -15    8.75    6.23
   6 -10  15    3.95    4.72
   6  10  15    3.64    4.87
  -6  10 -15    1.79    4.88
   8 -10  15  160.97   15.79
   8  10  15  146.70   18.30
  10 -10  15    3.81    5.16
  10  10  15    1.60    7.44
  12 -10  15   99.55   18.07
  12  10  15  100.17   24.56
  13 -11 -15   22.58    9.34
  13  11 -15    3.69    9.84
  13  11 -15   -0.12    9.10
  11 -11 -15   25.79    8.14
  11  11 -15   32.45   16.11
  11  11 -15   46.30   21.27
   9 -11 -15   45.14   12.17
   9 -11 -15   39.99    8.11
   9  11 -15   12.85   11.77
   7 -11 -15    7.64    5.00
   7 -11 -15    4.04    6.19
   7  11 -15   21.92   11.11
   7  11 -15   13.92   13.30
   5 -11 -15   56.37   15.00
   5  11 -15   24.41    8.27
   5  11 -15   17.33   10.63
  -3 -11  15   29.22   10.99
   3 -11 -15   17.33    5.85
   3 -11 -15   13.05    8.04
   3  11 -15   47.45   14.39
   3  11 -15   44.89   10.33
   1 -11 -15   86.74   19.29
  -1 -11  15   39.61   11.99
   1  11 -15   34.57    7.65
   1  11 -15   26.08   10.97
  -1 -11 -15   38.95   11.33
   1 -11  15   90.01   16.92
  -1  11 -15   78.00   18.12
  -1  11 -15   75.99    8.41
  -3 -11 -15   38.51   13.54
  -3 -11 -15   76.07   17.77
   3  11  15   60.27    7.55
   5 -11  15   39.76    9.83
  -5 -11 -15   11.80    9.45
   5  11  15   18.53    6.49
  -5  11 -15   36.73   11.22
   7 -11  15   36.09    9.26
   7  11  15   71.81   14.59
   9 -11  15   89.86   15.36
   9  11  15   42.14   12.33
  11 -11  15    2.61    6.18
  11  11  15   40.76   14.16
  12 -12 -15    3.12    5.46
  12  12 -15    8.32    6.91
  12  12 -15   11.82   10.51
  10 -12 -15  144.45   12.36
  10 -12 -15  139.54   16.05
  10  12 -15  178.48   42.03
  10  12 -15  134.87   29.08
   8 -12 -15    2.83    3.41
   8 -12 -15    4.05    6.22
   8  12 -15    4.95    7.02
   8  12 -15    4.44    8.29
   6 -12 -15  108.82   10.71
   6 -12 -15  116.09   16.31
   6  12 -15  150.81   34.60
   6  12 -15  126.80   23.47
   6  12 -15  134.68   24.79
   4 -12 -15    6.55    6.95
   4 -12 -15   12.28    5.03
   4  12 -15   10.92    5.77
   4  12 -15    7.67    7.68
   4  12 -15    1.90    5.77
   2 -12 -15   39.18   10.35
   2 -12 -15   27.09   11.97
  -2 -12  15   12.79    8.66
   2  12 -15   13.43   10.50
   2  12 -15    5.90    6.85
   2  12 -15   12.17    6.03
   0 -12  15   11.37    6.62
   0 -12 -15   14.32    5.98
   0 -12 -15    9.78    7.17
   0  12 -15   10.96    4.11
   0  12 -15    6.14    6.45
   0  12 -15    0.31    3.68
  -2 -12 -15  117.79   26.52
  -2 -12 -15  125.48   18.10
   2 -12  15  104.34   13.68
   2  12  15  103.53    7.38
  -2  12 -15  108.94   15.86
  -4 -12 -15    5.52    7.77
   4 -12  15    3.25    3.72
  -4  12 -15    8.90    5.74
   4  12  15    4.28    4.08
   6 -12  15   96.85   12.40
   6  12  15   84.07   11.67
   8 -12  15    6.46    5.63
   8  12  15    4.05    7.14
  10 -12  15   96.77   16.73
  10  12  15   85.46   19.88
  11  13 -15   -0.82    7.31
  11  13 -15    5.34   13.00
   9 -13 -15   11.15    7.54
   9 -13 -15   22.40    6.54
   9  13 -15   17.21   14.05
   9  13 -15   38.29   15.67
   7 -13 -15   26.70   11.32
   7 -13 -15   36.92    8.37
   7  13 -15    4.43    5.62
   7  13 -15   17.87   11.49
   7  13 -15    7.65    8.58
   5 -13 -15   19.91   11.99
   5 -13 -15   30.94    8.60
   5  13 -15   61.58   13.38
   5  13 -15   46.00   14.86
   5  13 -15   26.84   13.77
   3 -13 -15   67.23   17.74
   3 -13 -15   81.00   15.48
   3  13 -15   40.59    9.35
   3  13 -15   34.01   10.64
   3  13 -15   25.96   13.26
   1 -13 -15   28.18   12.52
   1 -13 -15   36.08   11.05
  -1 -13  15   48.57   13.63
   1  13 -15   79.66   14.43
   1  13 -15   56.37    7.93
   1  13 -15   54.84   17.13
   1 -13  15   27.76    9.61
  -1 -13 -15   69.01   16.95
  -1  13 -15   15.99    8.72
  -3 -13 -15   27.00   11.51
  -3  13 -15   72.94   17.07
   3  13  15   19.34    4.34
   5 -13  15   28.09    8.99
  -5  13 -15   31.93   11.37
   7 -13  15   60.45   12.39
   7  13  15   30.27   10.44
   9 -13  15   25.83    7.92
   9  13  15   64.13   17.61
   8 -14 -15  100.05   19.35
   8 -14 -15   97.82   10.97
   8  14 -15   87.11   22.49
   8  14 -15  126.39   34.67
   6 -14 -15   15.20    6.01
   6 -14 -15    5.74    7.09
   6  14 -15   20.29   12.34
   6  14 -15    9.51    6.94
   4 -14 -15   87.26   16.20
   4 -14 -15   60.78   17.71
   4  14 -15   38.82   15.13
   4  14 -15   72.21   16.60
   4  14 -15   65.69   13.03
   2 -14 -15    4.03    5.55
   2 -14 -15    3.98    6.47
   2  14 -15   -0.28    2.89
   2  14 -15   10.24    6.40
   2  14 -15    2.48    6.39
   0 -14 -15   90.90   20.55
   0 -14  15   63.52   16.04
   0  14 -15   47.33   16.29
   2 -14  15   11.41    6.04
  -2 -14 -15    3.66    7.95
  -2  14 -15   10.56    7.85
   6 -14  15   11.78    6.16
   6  14  15    5.55    6.05
   8 -14  15   90.33   16.43
   8  14  15   74.02   16.44
   7 -15 -15   23.83    8.35
   7 -15 -15   11.00   10.06
   7  15 -15   29.99   14.12
   7  15 -15   39.73   15.17
   5 -15 -15   24.84   10.68
   5 -15 -15    8.54    9.08
   5  15 -15    2.19    7.72
   5  15 -15   -0.88    4.03
   5  15 -15   -5.21    6.12
   3 -15 -15    1.88    8.76
   3  15 -15   15.30   12.02
   3  15 -15   -0.30    3.83
   3  15 -15    0.24    3.06
  -1 -15  15   -1.32    4.57
   1 -15 -15   20.02   12.06
   1  15 -15    5.24    9.35
  -1 -15 -15   10.18   13.56
   1 -15  15   24.38   10.58
  -1  15 -15   11.06   10.57
   3 -15  15   15.05    7.55
  -3  15 -15   13.51    9.51
   5 -15  15   26.39    9.72
  -5  15 -15    0.54    4.34
   5  15  15   -0.19    2.70
   5  15  15   -0.05    2.09
   7 -15  15   19.08    8.91
   7  15  15    1.79    6.49
   7  15  15   -0.71    3.47
   4 -16 -15    6.94    7.77
   4  16 -15    0.69    3.88
   4  16 -15    0.20    3.41
   4  16 -15   19.54   13.91
   2 -16 -15   54.88   17.60
   2  16 -15   62.34   21.93
   0 -16  15    9.10    6.77
   0  16 -15    4.36    7.92
   2 -16  15   97.29   20.48
  -2  16 -15   86.06   21.74
   4 -16  15   11.98    6.30
  -4  16 -15   -0.26    4.81
  16   0 -16  129.37   27.35
  14   0 -16    3.28    5.41
  12   0 -16  181.64   22.24
  12   0 -16  194.47   19.95
  10   0 -16    2.28    5.71
  10   0 -16    1.86    4.32
   8   0 -16  138.13   16.86
   8   0 -16  143.27   14.44
   6   0 -16    0.02    4.06
   4   0 -16  742.95   29.22
  -4   0  16  724.02   33.23
   2   0 -16   -1.94    2.72
  -2   0  16    0.82    4.11
   0   0 -16  535.12   24.85
   0   0  16  539.71   24.77
   2   0  16    4.49    4.42
  -2   0 -16    2.56    3.38
  -4   0 -16  251.88   19.36
   4   0  16  268.41   17.63
  -6   0 -16   -0.03    4.02
  -6   0 -16    3.97    4.35
   6   0  16    4.02    5.07
   8   0  16  283.11   21.62
  -8   0 -16  264.94   23.78
  -8   0 -16  257.88   22.17
  10   0  16    3.79    6.80
 -10   0 -16    2.38    4.09
 -10   0 -16   16.21    7.08
 -12   0 -16  155.35   19.55
  12   0  16  115.62   16.82
 -12   0 -16  148.06   21.39
 -14   0 -16    4.23    6.94
  14   0  16    4.35    7.66
  16   0  16   86.50   20.26
  17  -1 -16    9.85   10.61
  17   1 -16   11.52    9.58
  15  -1 -16    6.53    9.27
  15   1 -16    9.87    8.79
  13  -1 -16   34.61   12.80
  13  -1 -16   35.74   14.37
  13   1 -16   15.24   10.25
  11   1 -16  105.40   21.46
  11   1 -16  107.74   14.79
   9  -1 -16  103.02   14.73
   9  -1 -16   84.00   11.41
   9   1 -16   56.15   15.44
   7   1 -16  106.61   20.62
   7   1 -16   89.24   11.27
  -5  -1  16   38.99   10.66
   5   1 -16   38.55    9.17
  -5   1  16   72.37   10.50
  -3  -1  16   77.84   14.10
   3   1 -16   61.19    8.35
  -1  -1  16   49.31   10.83
   1   1 -16   43.98    9.64
  -1  -1 -16   33.17    8.77
   1   1  16   36.89    8.19
  -3  -1 -16  125.62   13.47
   3   1  16  132.95   12.15
  -5  -1 -16   12.59    7.50
   5  -1  16   33.53    9.13
   5   1  16    6.33    5.44
  -5   1 -16   37.66   10.91
   7  -1  16   45.38   10.79
  -7   1 -16   48.60   12.61
  -7   1 -16   54.91   12.12
  -9  -1 -16   86.27   18.51
  -9  -1 -16   82.75   16.74
   9   1  16   66.45   15.08
 -11  -1 -16   52.62   14.75
  11  -1  16   24.91   10.50
 -11  -1 -16   70.69   19.65
 -11   1 -16   29.08    9.72
 -11   1 -16   12.21    9.96
  11   1  16   80.61   16.99
 -13  -1 -16   24.09   11.91
 -13  -1 -16   56.29   18.53
  13   1  16   37.23   13.35
  15  -1  16    7.76    9.82
  15   1  16   39.34   14.03
 -15   1 -16   -0.81    4.20
  16  -2 -16    1.52    6.52
  16   2 -16    2.32    7.00
  14  -2 -16  146.27   19.69
  14   2 -16  161.65   23.27
  12  -2 -16    2.28    6.15
  12  -2 -16    1.32    5.58
  12   2 -16    1.48    4.54
  12   2 -16    1.19    5.09
  10  -2 -16  187.52   16.77
  10  -2 -16  181.53   19.67
  10   2 -16  181.49   18.02
  10   2 -16  183.75   21.69
   8  -2 -16    7.09    5.70
   8   2 -16    2.51    4.60
   8   2 -16    2.58    5.08
   6  -2 -16  667.16   28.38
   6   2 -16  683.92   37.33
   6   2 -16  689.59   31.01
  -4  -2  16    0.91    4.18
   4  -2 -16    2.10    3.42
   4   2 -16    1.03    3.23
  -4   2  16    6.33    4.74
   2  -2 -16  140.47   11.78
  -2  -2  16  143.94   13.93
   2   2 -16  136.74   11.93
  -2   2  16  138.45   12.39
   0  -2  16    2.23    3.96
   0  -2 -16    3.39    4.02
   0   2  16    1.42    3.72
   0   2 -16    0.49    3.54
   2  -2  16  612.65   26.82
  -2  -2 -16  530.68   27.44
  -2   2 -16  574.92   27.32
   2   2  16  563.74   25.56
   4  -2  16    0.68    4.35
  -4  -2 -16    5.78    5.29
  -4   2 -16    7.77    5.46
   4   2  16   -0.74    4.01
   6  -2  16  228.58   17.33
  -6  -2 -16  240.52   21.49
  -6  -2 -16  251.68   21.82
   6   2  16  215.32   17.78
  -6   2 -16  219.12   19.19
   8  -2  16    3.92    6.07
  -8  -2 -16   12.85    5.82
  -8  -2 -16   13.52    6.49
  -8   2 -16    8.16    6.64
   8   2  16   -0.22    5.47
  -8   2 -16    7.92    5.16
  10  -2  16   98.08   18.55
 -10  -2 -16   61.66   16.41
 -10  -2 -16   74.98   19.06
 -10   2 -16   60.18   13.85
 -10   2 -16   81.16   17.43
  10   2  16   67.60   15.28
 -12  -2 -16    9.37    6.78
 -12  -2 -16   12.31   10.46
  12  -2  16    9.89    7.07
  12   2  16   -4.65    5.54
 -12   2 -16    4.36    8.35
 -12   2 -16    6.10    5.68
 -14  -2 -16   76.85   23.83
  14  -2  16  121.04   24.10
  14   2  16   75.89   17.94
  16  -2  16   -1.54    7.45
  16   2  16   -0.38    8.55
 -16   2 -16   -0.34    4.26
  15  -3 -16    7.14    7.68
  15   3 -16   -0.25    7.61
  13  -3 -16    5.74    6.69
  13  -3 -16    8.54    7.71
  13   3 -16   15.66    9.68
  11  -3 -16  128.11   14.62
  11  -3 -16  133.94   16.67
  11   3 -16   70.78   16.91
   9   3 -16  265.61   21.25
   9   3 -16  203.18   23.39
   7   3 -16   53.85   14.22
   7   3 -16   71.90   10.25
  -5  -3  16  141.61   16.20
   5   3 -16  138.06   12.94
   5   3 -16  128.74   16.00
  -3  -3  16   15.30    7.29
   3  -3 -16   14.93    5.85
   3   3 -16   11.94    5.63
  -3   3  16   18.53    6.58
  -1  -3  16   42.53   10.29
   1   3 -16   46.40    9.86
  -1  -3 -16   93.50   11.08
   1   3  16  102.24   10.27
  -5  -3 -16  102.29   14.30
  -5  -3 -16  120.96   14.74
   5   3  16  113.64   12.80
  -7  -3 -16   54.10   14.20
  -7  -3 -16   49.96   12.80
   7   3  16   40.35   11.75
   9  -3  16   33.33   10.99
  -9  -3 -16  126.35   23.96
  -9  -3 -16  121.04   23.88
  -9   3 -16   56.25   13.72
  -9   3 -16   49.59   11.30
 -11  -3 -16    3.12    7.45
  11  -3  16   25.72   10.09
 -11  -3 -16    3.98   10.14
 -11   3 -16   25.01   11.33
 -11   3 -16    9.83    7.40
  11   3  16    3.06    6.84
 -13  -3 -16   50.71   17.36
  13   3  16   72.07   18.33
  15  -3  16   53.57   17.89
  15   3  16    8.17    8.58
  16  -4 -16   23.37   11.33
  16   4 -16   58.34   21.34
  14  -4 -16    5.57    6.74
  14  -4 -16    0.55    6.89
  14   4 -16   14.94    9.38
  12  -4 -16   83.99   16.07
  12  -4 -16   74.13   16.06
  12   4 -16   84.61   23.74
  10  -4 -16    3.01    5.23
  10  -4 -16    6.94    5.31
  10   4 -16   -0.81    5.82
   8  -4 -16  938.96   36.18
   8   4 -16  940.13   50.52
   6  -4 -16    4.09    4.58
   6   4 -16   -4.62    3.00
   6   4 -16    2.70    5.00
   4  -4 -16 2217.24   59.33
   4   4 -16 2192.83   62.96
  -4   4  16 2281.12   61.48
   4   4 -16 2267.23   76.07
  -2  -4  16    0.51    4.19
   2  -4 -16    1.60    3.24
   2   4 -16   -0.22    3.42
  -2   4  16    0.15    3.19
   0  -4 -16  348.99   20.59
   0  -4  16  351.32   21.38
   0   4 -16  353.10   19.70
   0   4  16  365.90   18.82
   2  -4  16   -2.58    3.96
  -2  -4 -16    7.05    5.29
  -2   4 -16    3.97    4.18
   2   4  16    0.13    4.40
   4  -4  16  638.87   28.80
  -4  -4 -16  549.61   33.44
  -4  -4 -16  571.83   32.24
   4   4  16  617.43   28.28
  -4   4 -16  631.76   29.73
  -6  -4 -16    9.98    6.22
  -6  -4 -16   10.01    5.37
   6  -4  16    1.24    4.86
  -6   4 -16    2.55    4.24
   6   4  16   -3.64    4.32
  -8  -4 -16  528.64   36.17
  -8  -4 -16  496.01   35.87
   8  -4  16  524.19   28.25
  -8   4 -16  494.51   29.53
  -8   4 -16  502.76   27.67
   8   4  16  508.29   30.51
 -10  -4 -16    0.84    8.13
 -10  -4 -16    5.13    6.64
  10  -4  16    2.48    5.47
  10   4  16    5.87    6.92
 -10   4 -16   -1.43    4.11
 -10   4 -16    2.12    6.23
 -12  -4 -16  129.23   29.17
  12  -4  16  119.56   15.91
  12   4  16  132.26   24.27
 -12   4 -16   98.99   13.26
  14  -4  16   -3.45    5.50
  14   4  16   -0.27    7.23
  15  -5 -16   26.34    9.58
  15   5 -16   26.04   14.51
  13  -5 -16   66.53   14.95
  13  -5 -16   74.92   16.24
  11  -5 -16   52.25   13.19
  11  -5 -16   68.68   13.50
   9  -5 -16  157.27   14.04
   7   5 -16  167.70   21.23
   7   5 -16  215.99   18.17
  -5  -5  16  106.55   20.99
   5   5 -16   82.86   10.95
   5   5 -16   91.85   19.10
  -3  -5  16  123.18   15.03
   3   5 -16  112.61   15.68
   3   5 -16  127.51   12.32
  -1  -5  16   76.46   14.47
   1   5 -16   73.25    9.52
   1   5 -16   86.50   16.83
  -1  -5 -16   54.33   12.15
   1   5  16   56.81   10.40
  -3  -5 -16  117.15   14.12
  -3  -5 -16  110.49   14.79
   3   5  16  109.44   11.34
  -5  -5 -16   21.37    9.76
  -5  -5 -16   26.60   10.00
   5  -5  16   57.71   11.84
   5   5  16   21.71    8.46
   7  -5  16   18.83    7.68
  -7  -5 -16   76.01   17.34
  -7   5 -16   27.05    8.23
   9  -5  16  133.73   14.94
  -9  -5 -16   72.41   19.62
  -9   5 -16  124.89   14.36
  -9   5 -16  119.62   12.67
 -11  -5 -16   40.54   16.02
  11  -5  16    9.22    7.70
  11   5  16   31.73   11.82
  13  -5  16   97.77   19.82
  15   5  16   41.72   15.72
  14  -6 -16   93.50   20.58
  14  -6 -16  105.62   14.97
  14   6 -16   85.37   25.81
  12  -6 -16   10.04    4.63
  12  -6 -16    5.97    6.75
  12   6 -16    5.36    8.79
  10  -6 -16  166.45   15.42
  10   6 -16  149.82   22.16
   8  -6 -16   -1.36    3.75
   8   6 -16   -3.26    4.66
   8   6 -16    4.08    6.31
   6  -6 -16 2061.36   57.84
   6   6 -16 2283.90   83.92
   6   6 -16 2154.94   65.97
  -4  -6  16   -4.82    4.15
   4  -6 -16    0.39    3.80
   4   6 -16   -2.35    4.08
   4   6 -16    4.91    5.48
  -2  -6  16 1212.17   48.62
   2  -6 -16 1194.78   40.14
  -2   6  16 1167.85   36.58
   2   6 -16 1246.57   53.07
   0  -6  16   -2.38    4.77
   0  -6 -16    1.65    3.21
   0   6  16    2.46    4.01
   0   6 -16   -0.33    3.90
   0   6 -16    5.74    4.33
   2  -6  16  537.55   26.49
  -2  -6 -16  451.37   27.43
  -2  -6 -16  449.45   30.72
   2   6  16  481.72   22.99
  -2   6 -16  481.08   24.34
  -4  -6 -16    6.46    5.08
  -4  -6 -16    4.33    3.17
   4  -6  16    0.42    4.45
  -4   6 -16   13.01    6.18
   4   6  16   -1.52    4.18
   6  -6  16  399.00   23.13
  -6  -6 -16  398.94   31.91
  -6  -6 -16  368.11   29.25
  -6   6 -16  417.77   23.96
   6   6  16  407.29   25.39
   8  -6  16    1.02    5.34
  -8  -6 -16   -2.98    4.67
   8   6  16   -3.07    5.26
  -8   6 -16    5.16    5.84
  10  -6  16  185.49   18.30
 -10  -6 -16  159.43   22.94
  10   6  16  181.50   20.10
  12  -6  16   -3.94    4.44
  12   6  16    1.45    6.32
  14  -6  16   80.98   18.33
  14   6  16   81.13   20.05
  15  -7 -16   27.46    9.98
  15   7 -16   12.69   13.54
  15   7 -16   13.79   14.14
  13  -7 -16    5.63    7.33
  13  -7 -16   10.89    6.98
  13   7 -16   13.52   10.45
  11  -7 -16  109.95   13.73
  11  -7 -16  114.06   13.09
   9   7 -16  144.48   16.91
   9   7 -16  115.51   24.89
   7   7 -16   71.81   21.87
   7   7 -16   62.10   13.86
  -5  -7  16  120.54   22.76
   5   7 -16  117.36   13.12
   5   7 -16  111.87   23.00
  -3  -7  16   59.41   14.48
   3   7 -16   39.68    9.19
   3   7 -16   52.55   15.09
   1  -7 -16   44.94   12.39
   1  -7 -16   55.25   11.07
  -1   7  16   53.76    7.29
  -1  -7 -16   80.47   11.55
  -1  -7 -16   91.64   19.57
   1   7  16   69.49    8.49
  -1   7 -16   36.53   10.97
   3  -7  16   79.86   10.99
  -3   7 -16   95.65   10.76
  -3   7 -16   89.11   12.35
  -5  -7 -16   37.81   11.51
   5  -7  16   12.97    6.38
   5   7  16   32.96    9.86
  -5   7 -16   25.04    6.82
   7  -7  16   71.07   13.18
  -7  -7 -16   58.83   17.60
  -7   7 -16   92.37   10.88
  -9  -7 -16   82.44   24.09
   9   7  16   93.37   18.59
  11  -7  16   35.85   10.24
  11   7  16    2.62    7.41
  13  -7  16   13.06    8.56
  13   7  16   40.95   15.82
  14  -8 -16   -0.53    4.43
  14  -8 -16   -1.01    6.36
  14   8 -16   -1.53    8.01
  14   8 -16    4.73    7.94
  12  -8 -16   68.56   14.53
  12  -8 -16   81.34   15.64
  12   8 -16   50.99   19.83
  10  -8 -16   -1.32    4.70
  10   8 -16    5.66    8.84
   8  -8 -16  443.91   21.73
   8   8 -16  410.51   36.64
   6  -8 -16    2.92    3.58
   6   8 -16    7.42    5.56
   6   8 -16    4.75    5.55
   4  -8 -16  851.26   31.85
  -4  -8  16  935.15   47.78
   4   8 -16  954.44   37.75
   4   8 -16  946.90   51.92
   2  -8 -16    4.70    4.48
   2  -8 -16    8.72    4.54
  -2  -8  16    7.31    6.07
   2   8 -16    3.97    6.51
   2   8 -16    2.30    4.58
   0  -8 -16  237.49   18.64
   0  -8 -16  196.18   20.74
   0  -8  16  223.15   19.40
   0   8  16  243.19   14.02
   0   8 -16  260.30   16.98
   0   8 -16  266.59   23.29
  -2  -8 -16   16.98    6.37
  -2  -8 -16    4.63    4.58
   2  -8  16    3.35    5.30
   2   8  16    4.76    4.80
  -2   8 -16   12.77    5.21
  -2   8 -16    3.11    4.65
   4  -8  16  428.50   24.31
  -4  -8 -16  418.20   30.30
  -4   8 -16  423.62   26.19
  -4   8 -16  445.52   22.76
   4   8  16  393.37   22.58
   6  -8  16   10.29    5.83
  -6  -8 -16   22.45    9.40
   6   8  16   -0.69    4.84
  -6   8 -16    2.88    3.69
  -6   8 -16    5.32    4.63
   8  -8  16  324.45   22.01
   8   8  16  365.23   27.06
  10  -8  16   -0.74    5.04
  10   8  16   -0.73    6.31
  12  -8  16   69.75   16.55
  12   8  16   50.37   15.75
  14  -8  16    3.84    7.62
  14   8  16    7.44    9.66
  13  -9 -16   27.78   11.24
  13   9 -16   15.97   12.92
  13   9 -16   12.58   12.06
  11  -9 -16   40.38    9.90
  11   9 -16   83.96   23.08
   9  -9 -16  179.20   14.02
   7  -9 -16   62.03    7.73
   7  -9 -16   56.57   13.41
   7   9 -16  107.78   23.10
   5   9 -16   38.29   13.78
   5   9 -16   67.23    9.77
  -3  -9  16   59.26   15.10
   3   9 -16   79.59   10.23
   3   9 -16   67.57   17.13
  -1  -9  16   22.46    9.41
   1  -9 -16   56.21   14.45
   1   9 -16   18.42    6.05
   1   9 -16   20.18    9.69
  -1  -9 -16   48.19   11.58
   1  -9  16   77.01   14.61
  -1  -9 -16   44.74   13.47
  -1   9 -16  105.47   19.75
   1   9  16   42.00    8.03
   3  -9  16   63.99   13.25
  -3   9 -16   75.94    9.07
  -3   9 -16   61.87   14.48
   5  -9  16   78.54   14.36
  -5  -9 -16   45.25   13.58
  -5   9 -16   78.82    8.27
  -5   9 -16   75.47   10.99
   7  -9  16   42.47   10.27
  -7   9 -16   42.38    9.43
   9  -9  16   65.70   12.70
   9   9  16   18.01    8.93
  11  -9  16   14.78    7.74
  11   9  16   11.01    9.72
  13  -9  16   32.90   13.04
  13   9  16    9.34    9.65
  12 -10 -16    2.85    5.31
  12 -10 -16    0.19    5.95
  12 -10 -16    6.01    5.06
  12  10 -16    5.99    9.24
  12  10 -16    3.24    6.78
  10 -10 -16  118.12   12.18
  10 -10 -16  138.47   15.95
  10  10 -16  137.22   33.68
   8 -10 -16    4.53    4.50
   8  10 -16   12.48    7.46
   8  10 -16    0.65    3.89
   6 -10 -16  313.61   25.06
   6 -10 -16  313.47   17.51
   6  10 -16  292.98   31.94
   6  10 -16  319.57   23.02
   4 -10 -16   12.29    5.52
   4 -10 -16   10.83    3.82
  -4 -10  16   13.36    7.75
   4  10 -16    1.16    4.27
   4  10 -16   15.76    6.36
   2 -10 -16  161.78   14.62
   2 -10 -16  182.05   20.37
  -2 -10  16  142.47   18.22
   2  10 -16  160.07   14.30
   2  10 -16  148.38   20.21
   0 -10  16    4.59    5.88
   0 -10 -16   10.02    4.19
   0 -10 -16    9.12    5.12
   0  10 -16   15.31    4.84
   0  10 -16    6.11    7.69
   0  10  16    7.62    2.38
   2 -10  16  349.28   24.24
  -2 -10 -16  332.25   26.12
  -2 -10 -16  348.92   31.47
   2  10  16  361.74   18.22
  -2  10 -16  363.73   28.02
  -2  10 -16  349.44   19.53
  -4 -10 -16   14.89    9.07
   4 -10  16    5.57    5.07
  -4 -10 -16   20.88   10.52
   4  10  16    6.59    5.60
  -4  10 -16    4.49    3.30
  -4  10 -16    4.54    5.86
   6 -10  16  152.25   15.51
  -6 -10 -16  220.03   52.32
  -6  10 -16  190.64   17.25
   6  10  16  140.01   15.08
   8 -10  16    4.13    4.63
   8  10  16    8.18    7.70
  10 -10  16   54.87   12.52
  10  10  16   39.07   13.07
  12 -10  16    0.47    5.82
  12  10  16    7.38    9.13
  11 -11 -16   35.15   11.54
  11 -11 -16   48.04   10.73
  11  11 -16   14.16   10.78
  11  11 -16   16.52   12.62
   9 -11 -16   18.69    6.37
   9 -11 -16   18.93    8.11
   9  11 -16   19.49   12.31
   9  11 -16   38.29   18.09
   7 -11 -16   41.20    8.15
   7 -11 -16   50.27   13.70
   7  11 -16   20.47    8.93
   5 -11 -16   24.51    9.98
   5 -11 -16   30.19    7.40
   5  11 -16   51.78   15.49
   5  11 -16   72.42   14.13
   3 -11 -16   22.33   10.24
  -3 -11  16   12.10    7.53
   3 -11 -16   16.12    6.95
   3  11 -16   17.85   11.76
   3  11 -16   10.70    6.52
  -1 -11  16   67.74   15.52
   1  11 -16   87.65   10.50
   1  11 -16  106.48   23.26
  -1 -11 -16   26.27   11.74
  -1 -11 -16   52.97   14.02
   1 -11  16   25.93    9.35
   1  11  16   34.03    4.57
  -1  11 -16   15.59    8.87
  -1  11 -16   22.67    6.44
  -3 -11 -16   15.65    9.82
  -3 -11 -16    8.16    9.68
   3 -11  16   20.02    9.01
  -3  11 -16   26.81    5.77
  -3  11 -16   33.35    6.38
  -3  11 -16   21.51   10.28
   3  11  16   24.29    6.21
   5 -11  16   17.76    7.57
  -5 -11 -16   35.55   19.41
   5  11  16   46.57   10.58
  -5  11 -16   22.84    8.66
   7 -11  16   55.89   11.76
   7  11  16   22.67    9.06
   9 -11  16   26.73    8.85
   9  11  16   63.32   16.58
  11 -11  16   13.58    9.00
  11  11  16   24.48   13.11
  10 -12 -16    4.16    6.33
  10 -12 -16    6.28    5.22
  10  12 -16    7.29    8.96
  10  12 -16    6.87    7.82
   8 -12 -16   51.08    9.59
   8 -12 -16   36.08   12.98
   8  12 -16   33.98   14.49
   8  12 -16   38.38   15.22
   6 -12 -16    2.06    5.22
   6 -12 -16   12.64    4.75
   6  12 -16    5.99    5.59
   6  12 -16   16.93    9.15
   4 -12 -16  125.50   18.46
   4 -12 -16  122.08   12.88
   4  12 -16   87.36   22.62
   4  12 -16   91.28   13.40
   4  12 -16  110.47   15.98
   2 -12 -16   17.45    6.42
  -2 -12  16   12.12    6.24
   2 -12 -16    3.63    5.73
   2  12 -16    0.62    4.10
   2  12 -16   10.12    4.81
   2  12 -16    3.30    5.65
   0 -12  16   98.41   18.67
   0 -12 -16  110.39   24.35
   0 -12 -16  126.82   16.59
   0  12 -16  104.33   22.41
   0  12 -16   98.55   12.15
   0  12 -16  102.15   10.68
  -2 -12 -16    8.59    6.70
   2 -12  16    7.76    5.96
  -2  12 -16    8.77    6.43
   2  12  16   10.89    3.35
   4 -12  16   89.92   16.07
  -4  12 -16  109.59   15.38
   4  12  16   99.69   10.84
   6 -12  16    5.00    4.58
  -6  12 -16    0.86    4.47
   6  12  16    0.84    5.02
   8 -12  16   85.34   15.29
   8  12  16   84.69   17.57
  10 -12  16    5.42    4.99
  10  12  16    7.44    9.40
   9 -13 -16   36.24   12.45
   9 -13 -16   52.87    9.43
   9  13 -16   23.12   13.05
   9  13 -16   20.51   16.14
   7 -13 -16   24.82    6.95
   7 -13 -16    6.36    8.76
   7  13 -16   26.24   12.99
   7  13 -16   43.25   15.34
   5 -13 -16   51.57   11.41
   5 -13 -16   63.60   17.90
   5  13 -16   20.95    9.50
   5  13 -16   22.46   10.82
   5  13 -16    3.41    8.40
   3  13 -16   71.88   16.20
   3  13 -16   70.03   12.68
   3  13 -16   58.92   17.76
   1 -13 -16   23.88   12.61
  -1 -13  16   22.17    9.25
   1 -13 -16   61.18   15.62
   1  13 -16   18.74    8.86
   1  13 -16   20.78    7.05
   1  13 -16   14.70    7.17
   1 -13  16   57.78   14.74
  -1  13 -16   61.38   16.42
   3 -13  16   29.41    9.84
  -3  13 -16   36.82   12.79
   5 -13  16   13.65    7.71
  -5  13 -16   16.71    9.28
   5  13  16    4.92    4.79
   7 -13  16   29.38    8.98
   7  13  16   51.37   12.68
   9 -13  16   61.82   13.26
   8 -14 -16   10.58    5.61
   8 -14 -16    3.63    7.80
   8  14 -16    7.30    7.66
   8  14 -16   13.09    9.76
   6 -14 -16  192.97   23.45
   6 -14 -16  192.44   17.18
   6  14 -16  224.16   43.33
   6  14 -16  158.70   21.72
   4 -14 -16   -0.18    5.36
   4 -14 -16   12.49    7.42
   4  14 -16   11.18    6.93
   4  14 -16    8.11    7.76
   4  14 -16    6.56    5.37
  -2 -14  16  105.47   22.75
   2 -14 -16   95.12   19.07
   2  14 -16   76.84   21.33
   2  14 -16  102.72   13.40
   0 -14 -16   11.03    8.58
   0 -14  16   12.52    6.37
   0  14 -16    5.74    5.00
   2 -14  16  118.87   21.77
  -2  14 -16  126.27   24.81
   4 -14  16    9.16    6.60
   4  14  16   -0.04    2.52
  -4  14 -16    8.23    7.02
   6 -14  16   99.70   17.50
   6  14  16   93.23   15.61
   8 -14  16    8.38    5.44
   8  14  16    9.82    8.43
   7 -15 -16   26.37   13.20
   7 -15 -16   29.24   10.55
   7  15 -16    0.12    8.78
   7  15 -16    9.93   10.27
   5 -15 -16   10.88    9.10
   5 -15 -16    3.48   10.42
   5  15 -16   26.10   15.10
   5  15 -16   37.43   13.02
   5  15 -16   -0.33    4.25
   3 -15 -16   15.51   10.82
   3  15 -16   -3.22    3.20
   3  15 -16    4.08    9.55
   3  15 -16   -0.55    2.99
   1 -15 -16    9.42   10.01
  -1 -15  16   16.92   10.49
   1  15 -16   36.76   17.10
   1 -15  16   17.12    9.15
  -1  15 -16    8.43    8.63
   3 -15  16   39.64   13.25
  -3  15 -16   25.20   12.00
   5 -15  16   11.15    8.62
   5  15  16   -0.59    2.13
   5  15  16    0.36    2.76
  -5  15 -16    2.28    5.06
   4  16 -16  169.67   37.40
   2 -16 -16    0.38    9.31
   2  16 -16    3.06    8.01
   0 -16  16   52.25   15.64
   0  16 -16   57.87   19.67
   2 -16  16   16.10    8.85
  -2  16 -16    0.62    6.22
  16   0 -17    5.41    6.80
  14   0 -17  181.91   23.16
  12   0 -17    8.30    7.00
  12   0 -17    2.20    6.66
  10   0 -17    8.06    7.23
  10   0 -17   30.56   11.03
   8   0 -17   -0.92    4.59
   8   0 -17    3.25    5.32
   6   0 -17  357.79   20.94
  -4   0  17    0.61    4.53
   4   0 -17    0.76    3.90
  -2   0  17 2233.66   65.32
   2   0 -17 2213.14   61.69
   0   0 -17    6.01    4.82
   0   0  17    4.13    4.73
  -2   0 -17    4.77    5.32
   2   0  17    6.93    5.24
   4   0  17   -1.77    4.24
  -4   0 -17    4.31    4.66
   6   0  17   -1.62    4.46
  -6   0 -17   -0.89    5.44
  -8   0 -17    4.72    3.33
  -8   0 -17    9.69    7.29
   8   0  17   -0.32    5.28
 -10   0 -17   81.01   18.39
 -10   0 -17   85.29   19.62
  10   0  17   85.31   17.13
 -12   0 -17    6.96    5.75
  12   0  17    3.85    7.06
 -14   0 -17   71.31   19.37
  14   0  17   84.25   19.33
 -16   0 -17    0.29    6.45
  15  -1 -17   44.21   16.43
  15   1 -17   20.51   13.25
  13  -1 -17   15.00    8.12
  13   1 -17   29.78   11.47
  11  -1 -17   37.33   11.84
  11  -1 -17   36.90   10.66
  11   1 -17   10.15    8.13
  11   1 -17   10.11    8.69
   9  -1 -17   35.43    9.61
   9   1 -17   53.75   16.49
   9   1 -17   57.24   13.11
   7   1 -17   30.12   11.38
   7   1 -17   49.86   11.16
  -5  -1  17  162.84   16.62
   5   1 -17  143.24   13.01
  -3  -1  17   28.93    9.11
   3   1 -17   32.52    7.87
   1  -1 -17   41.42    9.20
  -1   1  17   44.06    9.86
  -1  -1 -17   21.58    6.89
   1  -1  17    9.11    5.58
   1   1  17   32.65    8.84
  -1   1 -17    7.20    4.63
   3  -1  17   83.04   10.56
  -3   1 -17   80.84   14.19
  -5  -1 -17   55.49   12.83
   5   1  17   49.14   12.01
  -7  -1 -17   49.76   13.56
   7  -1  17  110.87   13.24
  -7   1 -17   87.04   12.40
  -7   1 -17   96.01   13.25
   9  -1  17   38.55   11.63
  -9   1 -17   56.41   14.03
   9   1  17  110.78   14.96
  -9   1 -17   70.54   16.41
  11  -1  17   53.78   13.49
 -11   1 -17   56.31   14.55
  11   1  17   20.87   10.25
 -11   1 -17   48.46   15.79
  13  -1  17   31.39   11.75
 -13  -1 -17   60.41   17.72
  13   1  17   87.59   19.65
 -13   1 -17   42.94   15.20
  15  -1  17   42.19   16.58
 -15  -1 -17    0.72    7.55
 -15   1 -17   -1.56    4.20
  15   1  17    7.49   10.26
  16  -2 -17   51.01   16.03
  16   2 -17   68.35   20.78
  14  -2 -17    5.36    5.76
  14   2 -17    5.17    6.54
  12  -2 -17   46.36   14.52
  12  -2 -17   51.64   13.99
  12   2 -17   48.93   14.87
  10  -2 -17   -1.84    4.45
  10  -2 -17    6.49    5.81
  10   2 -17   -2.44    5.21
  10   2 -17    4.23    5.47
   8  -2 -17   76.01   13.66
   8   2 -17   59.49   12.69
   8   2 -17   63.97   16.19
   6  -2 -17   -4.55    2.92
   6   2 -17    0.78    4.28
   6   2 -17   -1.17    3.59
   4  -2 -17  442.51   21.80
  -4  -2  17  421.44   27.07
  -4   2  17  448.17   24.60
   4   2 -17  446.41   22.88
   2  -2 -17    1.11    3.80
  -2  -2  17    1.86    4.02
  -2   2  17   -1.49    3.18
   2   2 -17   -1.23    3.07
   0  -2 -17  225.35   16.38
   0  -2  17  226.75   16.75
   0   2 -17  224.23   16.05
   0   2  17  235.65   15.94
   2  -2  17    0.37    4.54
  -2  -2 -17    2.75    4.23
   2   2  17    1.08    4.42
  -2   2 -17    1.18    4.20
   4  -2  17    7.78    5.92
  -4  -2 -17    5.63    6.03
   4   2  17    8.56    5.81
  -4   2 -17    6.22    5.93
  -6  -2 -17   14.40    6.01
   6  -2  17    2.47    4.84
  -6  -2 -17    8.69    5.96
   6   2  17    1.87    4.97
  -6   2 -17   10.65    5.72
  -8  -2 -17  285.32   25.38
   8  -2  17  253.79   20.71
  -8  -2 -17  259.31   24.04
  -8   2 -17  251.77   22.08
  -8   2 -17  247.22   20.89
   8   2  17  241.24   20.75
 -10  -2 -17    5.87    6.20
  10  -2  17   -2.05    5.07
 -10   2 -17    3.71    4.83
 -10   2 -17    7.81    7.78
  10   2  17    1.92    6.20
  12  -2  17   93.54   17.69
  12   2  17   50.50   13.95
 -12   2 -17  104.05   22.33
 -12   2 -17   68.30   15.78
 -14  -2 -17    0.34    7.93
  14  -2  17    1.46    7.56
  14   2  17    5.80    8.96
 -14   2 -17   -1.00    4.15
  15  -3 -17    2.39    7.15
  15   3 -17   12.44    9.53
  13  -3 -17   18.51    9.64
  13  -3 -17   25.25   10.93
  13   3 -17   10.13   10.18
  11  -3 -17   53.36   12.98
  11  -3 -17   33.18   11.59
  11   3 -17   72.46   18.30
  11   3 -17   93.50   17.73
   9   3 -17   69.13   14.16
   9   3 -17   65.68   18.08
   7   3 -17  163.52   19.67
   7   3 -17  156.97   15.18
  -5  -3  17  124.40   15.88
   5   3 -17   90.57   10.88
   5   3 -17   97.35   14.52
   3  -3 -17    5.84    5.06
  -3  -3  17   31.91    9.72
  -3   3  17   18.31    7.23
   3   3 -17   45.09    9.89
  -1  -3  17   26.95    8.92
   1   3 -17   37.81    8.25
   1  -3  17   83.60   13.71
  -1   3 -17   68.67    9.53
  -3  -3 -17  222.23   18.75
   3   3  17  186.77   15.01
   5  -3  17  102.45   11.92
  -5   3 -17  121.19   13.61
  -7  -3 -17  112.67   16.10
  -7  -3 -17  110.49   20.87
   7   3  17   96.60   13.68
  -9  -3 -17   29.73   10.99
   9  -3  17   57.19   13.17
  -9   3 -17   63.55   13.61
  -9   3 -17   79.18   16.66
 -11  -3 -17    9.56   13.00
  11  -3  17    2.48    6.85
  11   3  17   25.30   10.23
 -11   3 -17   11.28    9.65
 -11   3 -17   14.07    8.34
 -13  -3 -17   22.04   16.29
 -13   3 -17    8.44    6.45
  13   3  17    8.36    9.06
  15  -3  17    7.44   10.01
  15   3  17   63.48   21.38
  16  -4 -17   12.43    7.91
  16   4 -17    4.62    8.59
  14  -4 -17  114.25   23.45
  14   4 -17  118.23   26.86
  12  -4 -17   -2.01    5.18
  12  -4 -17   12.33    5.38
  12   4 -17   -3.29    2.70
  10  -4 -17  137.71   14.39
  10  -4 -17  134.81   16.78
  10   4 -17  127.59   24.42
   8  -4 -17    0.68    4.61
   8   4 -17    0.13    3.43
   6  -4 -17   78.79    9.53
   6   4 -17   92.42   17.91
   6   4 -17   76.36   10.91
  -4  -4  17    4.02    6.22
   4  -4 -17    4.90    4.96
   4   4 -17    0.71    4.88
   4   4 -17    0.31    4.18
  -4   4  17    0.16    3.78
   2  -4 -17  403.75   21.05
  -2  -4  17  444.09   26.66
  -2   4  17  409.98   21.36
   2   4 -17  416.81   22.32
   0  -4  17    2.35    5.25
   0  -4 -17    4.10    4.33
   0   4  17    2.41    4.14
   0   4 -17    2.87    4.31
  -2  -4 -17  463.87   27.33
   2  -4  17  548.15   26.78
  -2   4 -17  512.81   26.02
   2   4  17  509.51   24.62
  -4  -4 -17    4.57    3.96
  -4  -4 -17    5.54    5.05
   4  -4  17   -1.49    4.21
  -4   4 -17    7.53    5.29
   4   4  17   -0.29    4.66
   6  -4  17  477.73   25.83
  -6  -4 -17  462.08   31.83
  -6  -4 -17  473.22   33.38
   6   4  17  499.39   27.65
  -6   4 -17  476.03   27.87
  -8  -4 -17    8.12    4.98
  -8  -4 -17   12.40    7.80
   8  -4  17    1.07    4.74
  -8   4 -17   12.97    6.96
   8   4  17    2.65    6.21
 -10  -4 -17  149.68   27.81
  10  -4  17  108.49   14.86
 -10   4 -17  116.81   14.10
  10   4  17  124.14   16.25
 -10   4 -17  134.21   22.71
  12  -4  17    0.66    5.85
  12   4  17    1.13    6.78
 -12   4 -17    1.07    3.84
  14  -4  17  114.67   23.68
  14   4  17  117.40   23.01
  15  -5 -17   40.03   12.95
  15   5 -17   50.96   20.12
  13  -5 -17   25.63   10.70
  13  -5 -17   18.60    7.98
  13   5 -17   27.35   12.66
  11  -5 -17   53.85   12.67
  11  -5 -17   55.64   13.52
  11   5 -17   41.26   16.34
   9  -5 -17   41.71    9.87
   9   5 -17   95.87   20.83
   7   5 -17  117.87   14.02
   7   5 -17  135.47   26.07
  -5  -5  17  253.99   23.34
   5   5 -17  218.76   22.63
   5   5 -17  264.18   18.63
  -3  -5  17  121.62   15.23
   3   5 -17  103.36   11.58
   3   5 -17  113.87   15.99
   1  -5 -17  108.44   11.53
  -1   5  17  108.12   10.80
   1  -5  17   63.30   12.31
  -1   5 -17   43.15    9.53
  -3  -5 -17   55.07   14.56
  -3  -5 -17   71.40   15.37
   3   5  17   45.23    9.86
  -5  -5 -17   65.69   17.06
  -5  -5 -17   77.90   17.48
   5   5  17   75.86   13.65
  -7  -5 -17   27.41   11.48
   7  -5  17   58.81   12.22
   7   5  17   20.40    9.09
  -7   5 -17   58.02   12.96
   9  -5  17   42.57   11.83
   9   5  17  115.75   19.81
  -9   5 -17   55.52   13.38
  -9   5 -17   47.78   11.18
  11  -5  17   53.48   13.29
 -11   5 -17   42.84   11.18
  13   5  17   91.34   20.57
  15  -5  17   27.97   12.29
  15   5  17    6.06    9.24
  14  -6 -17   -1.04    6.15
  14  -6 -17    4.05    4.47
  14   6 -17   15.33    9.63
  12  -6 -17   90.97   17.68
  12  -6 -17   80.53   15.30
  12   6 -17   65.07   19.83
  10  -6 -17   -0.93    4.33
  10   6 -17    3.88    6.05
   8  -6 -17   54.38   10.39
   8   6 -17   54.22   15.98
   6  -6 -17    5.20    4.94
   6   6 -17   15.12    8.29
   6   6 -17    3.97    6.13
  -4  -6  17  177.32   19.81
   4  -6 -17  170.37   13.33
   4   6 -17  141.25   18.54
   4   6 -17  176.39   15.03
  -2  -6  17   -0.48    5.02
   2  -6 -17    5.45    4.91
   2   6 -17    3.43    5.50
   2   6 -17   -0.40    4.22
  -2   6  17    5.20    4.21
   0  -6 -17  563.59   28.63
   0  -6  17  621.12   31.69
   0   6 -17  592.99   27.38
   0   6 -17  600.99   34.28
   0   6  17  612.65   25.31
  -2  -6 -17   11.12    5.53
   2  -6  17    4.55    5.03
  -2  -6 -17    3.77    5.30
  -2   6 -17    1.83    4.44
   2   6  17    5.80    4.83
  -4  -6 -17  414.53   29.20
  -4  -6 -17  376.95   29.57
   4  -6  17  376.92   22.62
  -4   6 -17  367.62   22.56
   4   6  17  393.65   22.49
  -6  -6 -17    5.75    5.00
   6  -6  17   -0.95    4.39
  -6  -6 -17    5.85    6.54
   6   6  17    0.05    5.63
  -6   6 -17    8.02    4.43
   8  -6  17  508.29   28.59
   8   6  17  518.79   31.41
  -8   6 -17  519.05   28.96
  10  -6  17   -1.08    5.74
  10   6  17   -0.62    5.95
  12  -6  17  129.65   16.71
  12   6  17  130.72   18.32
  14  -6  17    6.03    9.18
  14   6  17    4.94    7.33
  15  -7 -17    3.97    5.52
  15   7 -17   16.81   10.88
  15   7 -17   25.87   15.48
  13  -7 -17   24.73   10.08
  13  -7 -17   37.71   12.25
  13   7 -17   15.91   12.32
  11  -7 -17   20.21    7.91
  11   7 -17   48.41   15.79
   9   7 -17   52.39   14.59
   9   7 -17   64.45   20.88
   7  -7 -17   56.82    7.76
   7   7 -17  104.90   21.16
  -5  -7  17  126.82   23.42
   5   7 -17   99.89   12.38
   5   7 -17  131.42   19.21
  -3  -7  17  170.82   19.03
   3   7 -17  176.99   20.93
   3   7 -17  165.73   14.67
  -1  -7  17   70.49   14.52
   1   7 -17   80.36   16.84
   1   7 -17   66.66    9.45
  -1  -7 -17   42.87   10.78
  -1  -7 -17   39.92   12.46
   1   7  17   37.25    8.38
   3  -7  17   28.08    8.97
  -3   7 -17   36.95   11.16
  -3   7 -17   48.50   10.41
   5  -7  17   42.21   10.47
  -5  -7 -17   22.75    8.99
  -5   7 -17   51.63   10.75
   5   7  17   14.65    7.28
  -7  -7 -17  112.60   24.43
   7   7  17   96.02   17.47
   9  -7  17   53.73   12.95
  -9   7 -17   54.89   11.32
  11  -7  17   19.10    8.58
  11   7  17   44.25   14.04
  13  -7  17   56.12   14.57
  13   7  17   15.19   12.74
  14  -8 -17   46.64   14.36
  14  -8 -17   54.72   14.09
  14   8 -17   38.13   16.84
  14   8 -17   50.70   20.18
  12  -8 -17    2.95    6.46
  12  -8 -17    3.95    4.28
  12   8 -17    8.25    7.25
  10  -8 -17   74.54   10.86
  10   8 -17   91.09   23.00
   8  -8 -17    5.84    5.14
   8   8 -17   -4.46    4.88
   8   8 -17   13.18    7.09
   6  -8 -17  117.48   11.07
   6   8 -17  143.51   30.55
   6   8 -17  120.06   13.18
   4  -8 -17   14.73    4.98
  -4  -8  17    9.42    7.78
   4   8 -17   10.78    6.47
   4   8 -17    4.76    6.83
   2  -8 -17  346.33   26.82
   2  -8 -17  351.63   21.31
  -2  -8  17  368.03   27.19
   2   8 -17  380.84   22.47
  -2   8  17  346.81   14.41
   2   8 -17  399.05   31.11
   0  -8 -17    8.96    5.44
   0  -8  17    3.49    4.88
   0  -8 -17    9.86    5.48
   0   8 -17    6.95    4.19
   0   8 -17   -0.30    4.52
   0   8  17    7.37    4.26
  -2  -8 -17  260.62   25.13
  -2  -8 -17  309.50   23.51
   2  -8  17  289.02   21.16
  -2   8 -17  286.07   23.47
   2   8  17  274.08   17.13
  -2   8 -17  287.03   18.66
  -4  -8 -17   16.70    7.25
   4  -8  17    2.52    5.57
  -4   8 -17   15.43    5.48
   4   8  17    2.95    5.22
  -4   8 -17    6.97    5.49
  -6  -8 -17  254.52   26.16
   6  -8  17  237.39   18.96
   6   8  17  255.36   21.18
  -6   8 -17  252.85   17.38
  -6   8 -17  233.91   19.05
   8  -8  17    8.70    6.56
   8   8  17    9.92    7.17
  -8   8 -17   12.17    4.72
  10  -8  17   86.80   15.46
  10   8  17   86.26   19.34
  12  -8  17    1.50    5.99
  12   8  17    2.78    8.97
  13  -9 -17    0.83    6.59
  13  -9 -17    5.69    5.96
  13   9 -17   36.92   19.81
  13   9 -17    9.55   10.80
  11  -9 -17   55.58   11.69
  11   9 -17   49.87   21.23
   9  -9 -17   38.67    8.98
   9   9 -17   87.42   20.61
   5  -9 -17   71.13   15.53
   5  -9 -17   74.22    8.78
   5   9 -17  140.16   28.13
  -3  -9  17   42.86   13.16
   3  -9 -17   87.31   18.42
   3   9 -17   42.51   15.45
   3   9 -17   35.60    8.78
   1  -9 -17   37.83   12.90
   1  -9 -17   40.50   10.12
  -1   9  17   43.71    4.92
   1   9 -17   80.50   20.06
  -1  -9 -17  105.57   14.15
  -1  -9 -17  121.18   24.56
   1   9  17   94.13    9.41
   3  -9  17  126.42   14.63
  -3   9 -17  160.15   13.63
  -3   9 -17  147.48   16.85
   5  -9  17   30.44    9.34
  -5   9 -17   39.49    8.38
  -5   9 -17   42.69   10.96
   7  -9  17   96.55   12.12
  -7   9 -17   78.29   10.81
   9  -9  17   23.77    8.64
   9   9  17   64.25   16.95
  11  -9  17   14.50    9.26
  11   9  17    4.60    8.32
  13  -9  17   22.33   10.17
  13   9  17   53.40   17.20
  12 -10 -17   30.28   10.26
  12 -10 -17   47.94   12.94
  12 -10 -17   30.22    9.97
  12  10 -17   39.93   17.16
  12  10 -17   38.20   19.04
  10 -10 -17    0.84    4.70
  10 -10 -17    9.79    5.53
  10  10 -17    9.29    5.88
   8 -10 -17   78.52   12.14
   8 -10 -17   98.23   14.06
   8  10 -17   81.82   21.15
   6  10 -17   10.63    7.81
  -4 -10  17  383.70   31.82
   4 -10 -17  361.93   20.86
   4 -10 -17  368.10   28.34
   4  10 -17  390.40   34.78
   4  10 -17  351.54   23.18
  -2 -10  17    4.45    5.27
   2 -10 -17   11.19    5.41
   2 -10 -17   14.29    7.48
   2  10 -17    2.16    3.73
   2  10 -17    7.93    6.97
   0 -10 -17  266.31   26.39
   0 -10  17  232.41   21.92
   0 -10 -17  283.90   22.28
   0  10 -17  278.83   17.95
   0  10  17  261.87   12.12
   0  10 -17  257.24   25.39
  -2 -10 -17   20.26    8.39
  -2 -10 -17   11.38    6.30
   2 -10  17    4.02    5.92
  -2  10 -17   10.19    7.08
  -2  10 -17   17.74    5.15
   2  10  17    5.19    4.80
  -4 -10 -17   26.84   14.41
  -4 -10 -17   20.33   12.82
   4 -10  17   40.80    9.98
  -4  10 -17   48.22    8.85
  -4  10 -17   38.80   11.63
   4  10  17   27.12    8.21
   6 -10  17    2.83    5.36
   6  10  17    2.91    5.98
  -6  10 -17    6.06    5.05
   8 -10  17  118.77   14.54
   8  10  17  126.15   16.44
  10 -10  17   -1.36    4.51
  10  10  17    2.17    7.69
  12 -10  17   52.00   13.84
  12  10  17   63.63   20.48
  11 -11 -17    8.38    6.92
  11 -11 -17    9.71    7.00
  11  11 -17   13.61   11.40
  11  11 -17   16.41   13.17
   9 -11 -17    5.42    7.64
   9 -11 -17   20.68    7.30
   9  11 -17    4.86    8.71
   9  11 -17   -2.49    4.93
   7 -11 -17   33.86   11.54
   7  11 -17   52.82   13.70
   7  11 -17   92.65   26.03
   5 -11 -17   48.31    9.77
   5 -11 -17   53.49   15.66
   5  11 -17   32.14   14.84
   3 -11 -17   25.53    8.23
   3 -11 -17   14.84    9.89
  -3 -11  17   39.55   13.44
   3  11 -17   62.62   12.21
   3  11 -17   30.30   11.41
   1 -11 -17   61.82   13.99
   1 -11 -17   47.98   16.69
   1  11 -17   23.97    6.85
   1  11 -17   31.00   12.12
   1 -11  17   27.63   10.71
  -1 -11 -17    3.51    5.92
  -1 -11 -17   10.66    8.06
  -1  11 -17   29.76    8.07
  -1  11 -17   25.91   11.04
   1  11  17   13.38    4.11
  -3 -11 -17   24.26   13.44
   3 -11  17   17.78    8.79
   3  11  17   36.29    7.74
  -3  11 -17    6.28    6.93
  -3  11 -17   14.82    5.08
   5 -11  17   47.85   11.18
  -5  11 -17   39.82   11.90
   7 -11  17   16.78    7.32
   7  11  17   24.94    9.02
   9 -11  17   42.38   11.77
   9  11  17   12.19   10.04
  11 -11  17    2.78    6.80
  11  11  17   45.36   16.31
  10 -12 -17    1.79    6.76
  10 -12 -17    9.92    6.79
  10  12 -17   12.68   10.56
  10  12 -17    7.69   11.70
   8 -12 -17    8.41    6.16
   8 -12 -17    5.17    4.48
   8  12 -17   -0.81    5.80
   8  12 -17   24.79   14.46
   6 -12 -17  100.24   21.31
   6 -12 -17   76.16    9.99
   6  12 -17  105.41   26.47
   6  12 -17   75.45   19.57
   4 -12 -17   13.91    7.34
   4 -12 -17   14.09    5.80
   4  12 -17    6.63    7.30
   4  12 -17    2.48    6.13
  -2 -12  17  287.88   27.78
   2 -12 -17  284.58   28.86
   2 -12 -17  320.80   23.34
   2  12 -17  271.89   29.80
   2  12 -17  297.60   20.12
   0 -12 -17    7.75    6.91
   0 -12  17    9.08    6.11
   0 -12 -17   20.91    7.94
   0  12 -17    9.76    4.87
   0  12 -17    1.03    6.17
  -2 -12 -17   15.86   12.03
   2 -12  17    5.97    7.59
  -2  12 -17    8.08    5.11
   2  12  17   11.41    4.36
  -2  12 -17    9.36    8.65
   4 -12  17    3.27    4.56
  -4  12 -17   11.18    6.22
   4  12  17   10.42    4.79
   6 -12  17    9.45    7.39
   6  12  17    2.92    6.49
  -6  12 -17    6.76    6.82
   8 -12  17   16.70    6.41
   8  12  17   10.37    8.21
  10 -12  17   47.07   11.94
  10  12  17   38.26   13.85
   9 -13 -17   16.59    6.76
   9 -13 -17   13.29   10.01
   9  13 -17    5.89   11.79
   9  13 -17   18.34   13.73
   7 -13 -17   27.42   11.46
   7 -13 -17   37.12    8.70
   7  13 -17    8.37   10.31
   5 -13 -17   24.12   11.87
   5 -13 -17   20.40    7.96
   5  13 -17   58.19   20.91
   5  13 -17   55.76   15.56
   3 -13 -17   33.41   13.77
  -3 -13  17   30.91   11.83
   3 -13 -17   35.03   10.92
   3  13 -17   34.20   15.52
   3  13 -17   23.97    7.29
   3  13 -17   10.82    8.46
  -1 -13  17   50.96   15.03
   1 -13 -17   28.12   10.81
   1  13 -17   41.59    9.32
   1  13 -17   48.64   12.56
   1  13 -17   43.96   15.82
  -1 -13 -17   53.71   17.01
   1 -13  17   14.98    8.02
  -1  13 -17   13.80    7.37
   3 -13  17   35.33   11.70
  -3  13 -17   38.51   13.42
   5 -13  17   18.78    7.62
   5  13  17   24.81    8.31
  -5  13 -17    7.70    6.85
   7 -13  17   42.34   11.78
   7  13  17   22.30    8.69
   9 -13  17   20.49    7.82
   9  13  17   31.79   11.13
   8 -14 -17   27.91    9.23
   8 -14 -17   27.87   12.17
   8  14 -17   47.94   17.40
   8  14 -17   20.58   14.03
   6 -14 -17    6.96    8.02
   6 -14 -17    2.93    5.91
   6  14 -17   12.73    9.20
   6  14 -17   13.85    9.39
   6  14 -17    9.82    7.23
   4 -14 -17   98.93   17.80
   4  14 -17   87.00   24.40
   4  14 -17   68.12   16.57
   4  14 -17   86.42   12.56
  -2 -14  17   19.36    8.98
   2 -14 -17   14.34    8.09
   2  14 -17   11.64    5.91
   2  14 -17    3.85    6.88
   0 -14 -17  101.76   22.23
   0 -14  17  106.06   22.03
   0  14 -17   81.11   21.34
   2 -14  17    9.46    5.81
  -2  14 -17    5.07    5.77
   4 -14  17   29.08   11.14
  -4  14 -17   15.98    9.56
   6 -14  17    8.24    5.88
   6  14  17    3.96    5.36
   5 -15 -17   57.48   14.94
   5  15 -17   13.89    9.40
   5  15 -17   19.79   10.98
   3 -15 -17    4.46    8.60
   3  15 -17   -1.66    3.53
   3  15 -17    0.87    3.54
   3  15 -17   14.19    9.90
  -1 -15  17   14.73   10.92
   1 -15 -17    5.45   10.49
   1  15 -17    5.96    9.72
   1 -15  17   33.25   13.16
  -1  15 -17   11.18   10.74
   3 -15  17   16.06    8.77
  -3  15 -17    4.23    8.67
   5 -15  17   28.44   11.44
   5  15  17    0.42    2.59
   5  15  17   -0.89    2.95
  -5  15 -17   -1.19    3.44
   2  16 -17   15.44   13.14
   0 -16  17   13.93    8.13
   0  16 -17   11.07    8.24
   2 -16  17   62.81   17.68
  -2  16 -17   70.57   23.19
  16   0 -18   92.65   23.39
  14   0 -18   10.90    6.87
  12   0 -18  400.08   42.31
  12   0 -18  287.87   28.53
  10   0 -18   -1.02    5.49
  10   0 -18    7.19    6.69
   8   0 -18  746.38   41.62
   8   0 -18  759.26   35.15
   6   0 -18   -1.18    3.99
  -4   0  18  854.28   38.25
   2   0 -18    4.41    4.77
  -2   0  18    1.91    4.52
   0   0  18  548.83   26.67
   0   0 -18  556.67   26.82
  -2   0 -18    4.44    5.14
   2   0  18    2.92    5.02
  -4   0 -18  412.06   26.51
   4   0  18  404.88   23.18
  -6   0 -18    4.21    5.91
   6   0  18    0.56    5.07
  -8   0 -18  268.59   23.62
  -8   0 -18  289.70   25.67
   8   0  18  267.97   21.90
 -10   0 -18    9.21    7.82
 -10   0 -18    5.97    4.11
  10   0  18    3.25    6.99
  12   0  18  123.42   17.67
 -12   0 -18  135.54   19.17
  14   0  18   13.61   11.13
  15   1 -18   63.87   19.50
  13  -1 -18   44.88   15.32
  13   1 -18    6.81    8.32
  11  -1 -18   17.37    9.08
  11   1 -18   51.35   12.64
  11   1 -18   29.54   11.46
   9  -1 -18   39.93   10.45
   9  -1 -18   20.76    8.59
   9   1 -18   11.83    9.05
   9   1 -18    6.35    6.85
   7   1 -18   74.59   17.87
   7   1 -18   86.95   11.22
   5  -1 -18  166.20   13.86
  -5   1  18  139.04   15.21
   3  -1 -18   49.84   10.43
  -3   1  18   38.78   10.31
  -1  -1  18   63.14   12.90
   1   1 -18   61.37   11.88
   1  -1  18   45.44   10.09
  -1   1 -18   58.08   11.46
   3  -1  18   24.53    8.23
  -3  -1 -18   67.14   14.29
  -3   1 -18   23.34    7.79
   5  -1  18   26.79    8.82
  -5  -1 -18   14.67    6.55
  -5   1 -18   21.69    8.73
   5   1  18    6.45    5.81
  -7  -1 -18   42.64   13.33
  -7  -1 -18   46.89   14.43
   7   1  18   41.01   11.12
  -9  -1 -18   47.49   13.86
  -9  -1 -18   32.32   10.86
  -9   1 -18   97.33   20.15
  -9   1 -18   82.61   17.26
   9   1  18   35.69   11.23
  11  -1  18   21.32   10.17
 -11  -1 -18   53.40   16.22
 -11   1 -18   41.44   14.46
  11   1  18   30.95   11.25
 -11   1 -18   15.09    9.05
  13  -1  18   95.57   20.38
 -13   1 -18   54.89   16.45
  13   1  18   22.60   10.55
  15  -1  18    1.02    8.01
  15   1  18   28.33   13.86
 -15   1 -18   -1.35    4.76
  16  -2 -18    0.00    5.68
  16   2 -18   -1.66    4.60
  14  -2 -18  107.67   23.59
  14   2 -18   65.54   18.35
  12  -2 -18    7.54    4.40
  12  -2 -18   -0.50    5.18
  12   2 -18    5.42    4.47
  10  -2 -18  476.41   28.13
  10  -2 -18  453.14   32.33
  10   2 -18  465.79   35.83
  10   2 -18  489.29   30.32
   8  -2 -18   -3.15    3.24
   8   2 -18   -1.40    4.42
   8   2 -18    4.65    5.73
   6  -2 -18  304.07   18.86
  -6  -2  18  301.03   24.37
   6   2 -18  333.35   26.69
   6   2 -18  285.86   19.61
  -4  -2  18    3.44    5.82
   4  -2 -18    5.91    4.97
  -4   2  18    1.40    3.95
   4   2 -18    3.41    4.61
   2  -2 -18  369.85   20.95
  -2  -2  18  396.39   24.52
  -2   2  18  376.15   22.02
   2   2 -18  365.11   20.94
   0  -2  18    0.38    4.05
   0  -2 -18    5.33    4.28
   0   2  18    4.40    4.47
   0   2 -18    3.84    3.56
   2  -2  18  492.09   25.71
  -2  -2 -18  569.26   29.36
  -2   2 -18  521.27   27.52
   2   2  18  558.62   26.35
  -4  -2 -18    9.26    5.74
   4  -2  18   -3.68    3.77
   4   2  18    1.53    4.91
  -4   2 -18   11.08    6.00
   6  -2  18  181.91   16.21
  -6  -2 -18  191.54   20.05
  -6  -2 -18  187.93   19.62
  -6   2 -18  198.63   19.05
   6   2  18  190.24   17.07
  -8  -2 -18   13.63    6.65
   8  -2  18    1.33    5.82
  -8  -2 -18   15.92    8.19
  -8   2 -18    8.68    5.53
  -8   2 -18   13.79    6.20
   8   2  18   -0.89    5.03
 -10  -2 -18   40.09   14.99
  10  -2  18   57.18   14.89
 -10   2 -18   47.15   13.31
 -10   2 -18   32.90   12.93
  10   2  18   28.37   11.95
  12  -2  18    4.90    7.85
 -12   2 -18    3.07    5.05
 -12   2 -18   16.52   10.07
  12   2  18    5.50    8.17
  14  -2  18   46.69   15.01
  14   2  18   51.42   14.42
  15  -3 -18   14.23   10.66
  15   3 -18    7.51   10.98
  13  -3 -18    4.27    6.29
  13   3 -18   10.75    9.50
  11  -3 -18   70.57   14.80
  11  -3 -18   63.49   15.92
  11   3 -18   36.43   15.34
   9   3 -18   73.55   16.09
   9   3 -18   54.96   15.20
   7   3 -18   50.80   10.87
   7   3 -18   77.27   19.46
  -5  -3  18  146.18   17.42
   5   3 -18  155.53   14.22
   5   3 -18  138.75   17.59
  -3  -3  18   20.85    9.20
   3   3 -18   15.16    6.64
   1  -3 -18   46.09   10.03
  -1   3  18   46.57   10.34
  -1  -3 -18  115.83   12.86
   1   3  18   98.22   10.99
   3  -3  18  175.32   15.31
  -3   3 -18  155.13   15.46
  -5  -3 -18  103.08   14.27
  -5  -3 -18   85.78   17.46
   5   3  18  108.37   12.84
   7  -3  18   66.32   13.66
  -7  -3 -18   29.90   11.44
  -7  -3 -18   37.43   12.25
  -7   3 -18   68.42   14.56
   7   3  18   42.11   12.06
  -9  -3 -18   37.89   13.46
   9   3  18   46.76   13.00
  -9   3 -18   36.91   11.22
  -9   3 -18   31.07    9.66
  11  -3  18   43.94   12.85
  11   3  18    5.15    7.58
 -11   3 -18   27.65   11.41
 -11   3 -18   29.40   12.05
  13  -3  18   28.24   11.91
  13   3  18   71.17   18.61
  15  -3  18   43.63   15.05
 -15   3 -18   -1.07    4.11
  15   3  18   11.97   10.88
  16  -4 -18   45.80   14.75
  16   4 -18   51.58   19.05
  14  -4 -18    3.85    5.01
  14   4 -18   19.82   11.73
  12  -4 -18  169.52   19.79
  12  -4 -18  152.16   16.88
  10  -4 -18   -0.73    4.50
  10   4 -18    8.45    6.60
  10   4 -18   -2.45    7.63
   8  -4 -18  114.76   12.02
   8   4 -18   89.44   19.03
  -6  -4  18    5.43    6.42
   6  -4 -18    3.92    4.96
   6   4 -18   -1.61    4.26
   6   4 -18   -1.87    3.44
  -4  -4  18  300.53   24.25
   4  -4 -18  311.45   18.45
   4   4 -18  283.60   24.77
   4   4 -18  291.91   19.34
  -4   4  18  273.33   18.21
  -2  -4  18    1.59    5.37
   2  -4 -18    5.16    4.53
   2   4 -18   -1.81    3.66
  -2   4  18    7.23    4.71
   0  -4 -18  839.42   35.64
   0   4 -18  841.53   34.30
   0   4  18  903.96   33.50
   2  -4  18    0.02    4.76
  -2  -4 -18    5.17    6.00
  -2   4 -18   12.12    5.34
   2   4  18    2.02    5.24
   4  -4  18  312.80   20.96
  -4  -4 -18  291.71   24.84
  -4  -4 -18  274.60   23.22
  -4   4 -18  321.96   22.42
   4   4  18  307.58   20.40
  -6  -4 -18    2.45    5.28
   6  -4  18    0.90    5.25
   6   4  18    0.90    5.28
  -6   4 -18   15.45    6.55
   8  -4  18   62.86   14.50
  -8  -4 -18   59.08   16.37
   8   4  18   77.81   16.54
  -8   4 -18   70.06   16.20
  10  -4  18   -3.19    4.72
  10   4  18   -1.01    5.92
 -10   4 -18   15.71    8.70
  12  -4  18  123.78   17.12
  12   4  18  124.76   23.17
 -12   4 -18   93.18   18.11
  14  -4  18    1.02    7.97
 -14   4 -18   -0.04    3.88
  14   4  18   10.13    9.53
  15  -5 -18   12.46    8.82
  15   5 -18   33.18   16.30
  13  -5 -18   31.34   11.47
  13  -5 -18   23.63   10.64
  13   5 -18   11.04    9.06
  11  -5 -18    7.81    6.81
  11  -5 -18   18.09    7.57
  11   5 -18   43.55   15.40
   9  -5 -18   40.56    9.33
   9   5 -18    8.62    9.35
   7  -5 -18   46.31    9.39
   7   5 -18  125.40   24.20
  -5  -5  18   85.18   18.41
   5   5 -18   73.82   16.98
   5   5 -18   76.02   10.70
  -3  -5  18  247.08   21.94
   3   5 -18  266.18   18.20
   3   5 -18  240.17   22.95
   1  -5 -18  385.12   22.28
  -1   5  18  366.52   20.34
   1  -5  18  148.07   14.94
  -1   5 -18  129.26   13.32
  -3  -5 -18  136.38   17.37
  -3  -5 -18  136.84   16.49
   3   5  18  137.43   13.63
  -5  -5 -18   46.82   13.75
  -5  -5 -18   31.16   11.97
   5   5  18   23.91    9.16
  -7  -5 -18   86.34   21.09
   7   5  18   77.53   15.04
   9  -5  18  123.92   15.17
  -9  -5 -18   47.76   25.28
  -9   5 -18  126.72   14.14
  -9   5 -18  134.10   15.72
  11  -5  18   24.77    9.56
 -11   5 -18   24.70    8.87
  11   5  18   51.19   14.12
 -11   5 -18   13.61    9.18
  13  -5  18   42.43   14.36
  13   5  18   10.04    9.76
  14  -6 -18   97.85   19.62
  14   6 -18   82.02   22.55
  12  -6 -18    6.01    4.46
  12  -6 -18   -4.71    4.63
  12   6 -18    0.72    4.75
  10  -6 -18   74.90   13.72
  10   6 -18   56.48   16.34
   8  -6 -18   -3.62    3.26
   8   6 -18    6.18    6.23
   6  -6 -18    5.54    5.61
   6   6 -18    9.56    7.56
   6   6 -18    3.69    7.25
   4  -6 -18    0.46    3.72
  -4  -6  18    2.42    5.98
   4   6 -18    0.31    4.91
   4   6 -18    1.02    5.50
  -2  -6  18  830.16   41.01
   2  -6 -18  863.31   34.39
   2   6 -18  850.93   34.68
   2   6 -18  864.34   44.72
  -2   6  18  803.68   30.97
   0  -6 -18    6.65    5.06
   0  -6  18    8.18    6.79
   0   6 -18    2.40    5.08
   0   6  18    2.56    4.66
   0   6 -18    5.36    4.94
  -2  -6 -18  478.23   29.38
   2  -6  18  477.19   26.60
  -2  -6 -18  430.66   30.99
  -2   6 -18  447.02   24.95
   2   6  18  491.50   23.85
  -4  -6 -18    3.66    3.93
   4  -6  18    0.20    5.47
  -4  -6 -18   13.15    5.65
   4   6  18   -0.04    4.47
  -4   6 -18    6.73    4.77
  -6  -6 -18   22.21   11.74
  -6  -6 -18   22.08    9.84
   6  -6  18   17.36    8.17
  -6   6 -18   30.32    9.74
   6   6  18   21.02    9.09
  -8  -6 -18   12.09    8.95
   8  -6  18   -3.48    5.36
   8   6  18    5.84    7.64
  -8   6 -18   23.73    7.37
  10  -6  18   63.20   13.32
 -10   6 -18   44.93   10.80
 -10   6 -18   47.15   13.01
  10   6  18   81.71   18.07
  12  -6  18   -1.38    4.58
  12   6  18   -2.03    6.89
  14  -6  18   84.15   18.67
  14   6  18   54.40   18.36
  13  -7 -18   16.31    9.54
  13  -7 -18   10.21    8.77
  13   7 -18   36.26   17.72
  11  -7 -18   33.05    9.53
  11   7 -18   11.59    7.99
   9   7 -18   41.68   16.17
   7  -7 -18   68.97    8.86
   7   7 -18   33.23   12.57
  -5  -7  18  175.73   21.41
   5   7 -18  194.66   23.50
   5   7 -18  205.23   17.10
  -3  -7  18   81.65   18.37
   3   7 -18   62.64   11.76
   3   7 -18   81.47   19.08
   1  -7 -18   84.05   17.23
   1  -7 -18   74.79   10.63
  -1   7  18   76.87    9.25
   1  -7  18   51.92   12.35
  -1   7 -18   62.33   11.83
  -1   7 -18   54.79   13.04
  -3  -7 -18   54.79   14.01
   3  -7  18   93.41   12.40
  -3   7 -18  106.34   12.17
  -3   7 -18  113.65   14.58
  -5  -7 -18   75.72   17.49
   5   7  18   59.73   13.17
  -5   7 -18   46.88   10.77
  -7  -7 -18   31.75   12.32
  -7  -7 -18   47.87   16.29
   7   7  18   36.05   10.70
   9  -7  18   23.30    8.76
  -9   7 -18   37.07   10.22
  -9   7 -18   26.79    8.09
   9   7  18   89.54   18.41
  11  -7  18   70.26   14.57
  11   7  18   28.81   11.57
  13  -7  18   30.80   11.16
  13   7  18   46.74   15.48
  14  -8 -18    2.58    5.81
  14   8 -18   12.65   10.27
  12  -8 -18  105.49   14.52
  12  -8 -18  110.22   14.39
  12   8 -18  125.18   28.62
  10  -8 -18   -0.74    4.71
  10   8 -18    4.31    4.05
   8  -8 -18   99.22   10.69
   8   8 -18   55.98   16.32
   8   8 -18  104.04   21.62
   6  -8 -18    6.42    4.77
   6   8 -18   11.82    6.61
   6   8 -18   -0.55    5.80
  -4  -8  18  122.20   17.57
   4  -8 -18  112.18   11.69
   4   8 -18  118.22   24.12
   4   8 -18  113.15   12.82
   2  -8 -18   11.62    4.42
  -2  -8  18   -0.58    5.42
   2  -8 -18    8.66    4.57
   2   8 -18    4.68    5.48
  -2   8  18    7.34    2.93
   2   8 -18    4.80    4.57
   0  -8 -18  355.36   23.69
   0  -8 -18  344.89   28.47
   0  -8  18  347.17   25.59
   0   8 -18  384.12   21.87
   0   8  18  359.14   18.64
   0   8 -18  358.93   28.81
   2  -8  18    1.98    5.14
  -2  -8 -18   18.54    7.07
  -2  -8 -18    9.11    5.18
  -2   8 -18   12.41    5.05
  -2   8 -18    7.29    6.04
   2   8  18    5.89    5.30
  -4  -8 -18  246.46   23.98
   4  -8  18  259.64   20.04
  -4   8 -18  258.23   18.75
   4   8  18  257.09   18.67
  -4   8 -18  260.76   21.85
  -6  -8 -18   13.35    7.76
   6  -8  18    9.28    6.26
  -6   8 -18   21.03    6.27
   6   8  18    7.40    7.02
   8  -8  18   99.53   13.27
  -8   8 -18   79.23    9.94
  -8   8 -18   88.67   11.29
   8   8  18  100.38   18.05
  10  -8  18    1.80    5.67
  10   8  18   -1.98    6.13
  12  -8  18  109.63   15.96
  12   8  18  139.97   25.59
  13  -9 -18   18.41    8.80
  13  -9 -18   10.81    9.90
  13   9 -18    8.41   11.81
  11   9 -18   70.06   22.63
   9   9 -18   24.23   12.65
   7  -9 -18   70.80    8.80
   7   9 -18  106.14   24.32
  -5  -9  18   60.24   17.06
   5   9 -18   56.96   11.45
   3  -9 -18   28.22   10.58
  -3  -9  18   50.56   15.57
   3  -9 -18   42.99    9.58
   3   9 -18   57.76   17.84
   1  -9 -18  156.29   19.06
   1  -9 -18  168.35   15.88
  -1   9  18  126.15    9.03
  -1  -9 -18   57.65   13.67
  -1  -9 -18   57.00   16.70
  -1   9 -18  107.34   20.26
   1   9  18   44.67    8.93
   3  -9  18   43.92   11.94
  -3   9 -18   65.56   15.18
  -3   9 -18   64.39    9.09
  -5  -9 -18   58.45   16.79
   5  -9  18  108.46   13.49
  -5   9 -18  117.32   14.34
  -5   9 -18  125.11   12.06
   7  -9  18   42.80   10.67
   7   9  18   64.40   14.42
  -7   9 -18   36.40    9.26
   9  -9  18   71.31   13.87
   9   9  18   11.69    9.33
  11  -9  18    5.62    7.60
  11   9  18   15.35   12.23
  12 -10 -18    2.44    6.47
  12 -10 -18    7.66    6.27
  12 -10 -18   12.07    6.11
  12  10 -18    6.32   10.52
  12  10 -18    5.82    8.50
  10 -10 -18  295.59   24.70
  10 -10 -18  276.01   19.37
   8 -10 -18   17.27    7.70
   8 -10 -18    5.59    5.05
   8  10 -18   16.19    9.38
   6 -10 -18  223.22   22.11
   6 -10 -18  248.02   16.72
   6  10 -18  230.68   28.20
  -4 -10  18    9.16    7.15
   4 -10 -18   17.38    5.59
   4 -10 -18   12.77    6.57
   4  10 -18    6.81    5.50
   4  10 -18   10.36    9.72
   2 -10 -18  201.79   22.22
  -2 -10  18  218.08   23.19
   2 -10 -18  196.40   17.25
   2  10 -18  219.60   17.25
   2  10 -18  220.25   25.13
   0 -10 -18   14.36    7.36
   0 -10  18    4.51    5.63
   0 -10 -18   17.18    6.44
   0  10  18    8.37    2.99
   0  10 -18   13.60    7.07
   0  10 -18   16.75    5.24
  -2 -10 -18  223.77   26.07
   2 -10  18  265.33   21.91
  -2 -10 -18  268.46   24.94
   2  10  18  263.21   16.43
  -2  10 -18  286.14   18.61
  -2  10 -18  266.46   24.90
  -4 -10 -18   17.87    8.80
   4 -10  18   11.55    6.64
   4  10  18    3.66    4.92
  -4  10 -18    2.66    4.72
   6 -10  18  161.26   16.53
  -6  10 -18  182.74   18.29
   6  10  18  153.72   16.36
   8 -10  18    7.54    5.78
   8  10  18    4.96    6.62
  10 -10  18   73.37   15.53
  10  10  18   66.45   17.28
  12 -10  18   -1.93    5.97
  12  10  18    5.39    8.27
  11 -11 -18   10.88    7.40
  11 -11 -18    1.59    6.45
  11  11 -18    3.52   10.58
  11  11 -18    5.86    5.99
   9 -11 -18    4.09    8.38
   9 -11 -18    5.54    6.22
   9  11 -18    9.05    8.59
   7 -11 -18   50.33   14.40
   7 -11 -18   35.47    9.28
   7  11 -18   35.07   16.84
   5 -11 -18   30.89    8.48
   5 -11 -18   23.72    9.67
   5  11 -18   28.79   12.07
   3 -11 -18   81.53   19.14
  -3 -11  18   48.23   15.22
   3  11 -18   30.72   14.43
   3  11 -18   26.22    8.37
   1 -11 -18   15.18   10.25
   1 -11 -18   32.41    9.98
  -1 -11  18   51.57   14.09
   1  11 -18   51.22   10.92
   1  11 -18   50.13   15.66
  -1 -11 -18   24.23   11.48
   1 -11  18   10.54    7.61
  -1 -11 -18   15.22   11.26
  -1  11 -18   19.07    6.83
  -1  11 -18   27.02   10.53
   1  11  18   24.89    5.56
   3 -11  18   66.23   14.45
  -3  11 -18   64.81   15.17
   3  11  18   34.66    8.08
  -3  11 -18   62.26    8.40
   5 -11  18    9.80    6.75
  -5  11 -18    1.85    4.99
   5  11  18   -0.63    5.31
   7 -11  18   39.91   10.55
   7  11  18   21.03    8.76
   9 -11  18    9.85    7.27
   9  11  18   11.64    8.21
  11 -11  18   39.00   12.47
  11  11  18    1.00    8.56
  10 -12 -18   -0.57    5.00
  10 -12 -18    6.39    7.79
  10  12 -18   -1.63    6.32
  10  12 -18    0.44    6.73
   8 -12 -18  178.45   15.40
   8 -12 -18  175.68   20.87
   8  12 -18  226.13   45.75
   8  12 -18  179.19   24.97
   6 -12 -18    8.03    8.31
   6 -12 -18    7.29    3.97
   6  12 -18    0.75    6.87
   6  12 -18    1.25    5.47
   4 -12 -18  144.20   20.54
   4 -12 -18  149.07   15.54
   4  12 -18  176.04   17.40
   4  12 -18  121.85   24.88
   2 -12 -18   20.17    8.00
   2 -12 -18    5.09    5.43
  -2 -12  18    8.17    5.83
   2  12 -18   17.50    8.97
   2  12 -18   16.77    5.83
   0 -12 -18  154.19   19.16
   0 -12  18   82.03   17.14
   0  12 -18  115.53   23.91
   0  12 -18  138.71   13.29
   2 -12  18   10.22    5.95
  -2 -12 -18   16.60    7.90
   2  12  18    4.54    3.60
  -2  12 -18   -2.26    2.47
  -2  12 -18    4.85    4.47
  -2  12 -18    4.96    4.12
   4 -12  18  127.23   15.85
   4  12  18  137.11   12.88
  -4  12 -18  124.39   17.47
   6 -12  18   10.34    6.21
   6  12  18    3.82    6.68
  -6  12 -18   11.93    7.59
   8 -12  18   93.45   13.38
   8  12  18  115.59   23.49
  10 -12  18   16.84    7.93
  10  12  18    0.74    6.48
   9 -13 -18    8.28    8.98
   9 -13 -18   20.26    8.66
   9  13 -18    7.06   12.48
   9  13 -18   17.73   12.96
   7 -13 -18    8.68    6.80
   7  13 -18   27.96   15.56
   7  13 -18   31.93   14.15
   5 -13 -18   66.87   13.99
   5 -13 -18   32.62   13.86
   5  13 -18   25.73   12.02
   5  13 -18   14.63   11.02
   3 -13 -18   15.46    9.30
  -3 -13  18   62.11   18.93
   3  13 -18   51.43   11.40
   3  13 -18   35.93   13.79
   3  13 -18   45.43   13.77
  -1 -13  18   18.64    9.47
   1  13 -18   43.31   12.06
   1  13 -18   17.15    7.13
   1  13 -18   21.84   10.12
   1 -13  18   44.00   12.74
  -1 -13 -18   12.71    9.87
  -1  13 -18   22.03   11.35
   3 -13  18    9.57    7.46
  -3  13 -18   12.35    9.94
   5 -13  18   38.10   11.39
  -5  13 -18   27.54   11.80
   7 -13  18   24.19    9.00
   7  13  18   25.23    9.54
   8 -14 -18    4.82    8.68
   8 -14 -18    6.76    6.12
   8  14 -18    1.84    7.26
   8  14 -18    7.70    9.88
   6 -14 -18  107.75   17.56
   6 -14 -18   62.88   23.48
   6  14 -18   77.25   19.78
   6  14 -18   74.65   23.55
   4 -14 -18   10.44    6.93
   4  14 -18    5.75    6.69
   4  14 -18   16.39    6.96
   4  14 -18   21.88   11.37
  -2 -14  18  164.58   29.74
   2 -14 -18  127.96   18.19
   2  14 -18  105.79   15.09
   2  14 -18   97.34   24.59
   0 -14 -18   -1.67    7.01
   0 -14  18   13.62    7.51
   0  14 -18    0.01    3.11
   0  14 -18    7.33    7.44
   2 -14  18  128.44   18.26
  -2  14 -18  140.60   20.91
   4 -14  18    8.68    6.43
  -4  14 -18    0.95    5.75
   4  14  18    0.32    2.34
   4  14  18   -0.82    2.91
   6 -14  18   77.00   15.97
   5 -15 -18   14.91   10.22
   5  15 -18   25.25   13.44
   5  15 -18   53.90   22.07
   3 -15 -18   10.76   10.95
   3  15 -18    1.74    4.08
   3  15 -18   11.33   13.68
   3  15 -18   -0.84    4.25
  -1 -15  18    8.73   10.52
   1  15 -18    0.51    2.85
   1  15 -18   -0.50    3.24
   1  15 -18   31.60   15.70
   1 -15  18   17.06    9.67
  -1  15 -18    8.90   12.17
   3 -15  18   58.42   15.95
  -3  15 -18   19.84   11.95
  -5  15 -18   -1.48    3.77
  16   0 -19    0.88    5.78
  14   0 -19  214.40   26.29
  12   0 -19    4.10    3.74
  10   0 -19  135.09   18.56
  10   0 -19  139.78   15.93
   8   0 -19    5.70    6.14
   8   0 -19    4.11    5.93
   6   0 -19  172.44   15.03
  -4   0  19    2.89    4.64
   4   0 -19    3.43    5.07
   2   0 -19  699.51   30.60
  -2   0  19  684.53   32.76
   0   0 -19    3.10    4.47
   0   0  19    8.21    5.83
  -2   0 -19 1559.12   54.33
  -4   0 -19    2.96    4.61
   4   0  19   -2.30    3.83
  -6   0 -19  424.39   29.97
   6   0  19  454.14   26.49
   8   0  19    5.80    6.75
  -8   0 -19   21.07    8.00
  -8   0 -19   18.54    8.37
 -10   0 -19  123.98   24.23
  10   0  19   95.63   18.14
 -12   0 -19    4.42    5.41
 -12   0 -19    2.84    9.06
  12   0  19    0.02    6.42
  14   0  19  119.58   25.29
  15  -1 -19   49.94   16.58
  15   1 -19   20.07   12.43
  13   1 -19   69.92   20.37
  11  -1 -19   61.24   13.91
  11  -1 -19   48.76   16.02
  11   1 -19   29.94   11.20
  11   1 -19   28.47   10.42
   9  -1 -19   20.30    8.30
   9  -1 -19   25.07    8.39
   9   1 -19   46.77   15.40
   9   1 -19   51.91   13.53
   7   1 -19   26.38   10.61
   7   1 -19   29.70    9.55
   5  -1 -19   58.22   11.18
  -5   1  19   70.31   14.16
  -3  -1  19   61.36   14.23
   3  -1 -19   90.25   11.10
  -3   1  19  108.55   12.83
   1  -1 -19   89.45   10.68
  -1   1  19   81.55   11.18
   1  -1  19   35.75    9.40
  -1   1 -19   39.65   10.79
  -3  -1 -19   32.22    9.83
   3   1  19   28.46    8.80
  -5  -1 -19   46.85   13.54
   5  -1  19    8.96    7.25
  -5   1 -19   22.43    8.22
   5   1  19   33.58    9.90
  -7  -1 -19   28.65   10.50
  -7  -1 -19   16.57    7.34
   7  -1  19   43.14   11.25
   7   1  19    4.68    6.35
  -7   1 -19   43.66   13.19
  -7   1 -19   27.73   10.81
  -9  -1 -19   38.92   13.30
   9  -1  19   14.96    8.40
   9   1  19   42.06   12.60
  -9   1 -19   27.35   10.34
  -9   1 -19   25.12   10.05
 -11  -1 -19   16.48   12.14
 -11  -1 -19    8.83    9.05
  11  -1  19   39.13   11.93
 -11   1 -19   39.16   13.03
  11   1  19   12.35    9.66
 -13  -1 -19   38.50   19.23
  13   1  19   64.94   17.35
 -13   1 -19    8.33   12.54
  15  -1  19   18.40   12.05
  15   1  19   -2.20    8.75
  16  -2 -19   37.58   14.70
  16   2 -19   28.85   15.16
  14  -2 -19    7.52    7.49
  14   2 -19    6.33    6.43
  12  -2 -19  176.91   21.40
  12  -2 -19  145.98   16.91
  12   2 -19  166.53   23.01
  10  -2 -19    5.01    5.11
  10  -2 -19    1.12    5.41
  10   2 -19   -2.31    4.87
  10   2 -19    1.92    4.03
   8  -2 -19  151.76   14.12
   8   2 -19  138.09   18.70
   8   2 -19  141.86   14.89
   6  -2 -19    1.32    4.16
  -6  -2  19    7.76    6.39
   6   2 -19    2.44    5.32
   6   2 -19   -2.12    4.23
   4  -2 -19  117.64   11.82
  -4  -2  19  110.24   14.88
  -4   2  19  106.58   12.91
   4   2 -19   96.14   11.21
   2  -2 -19   -0.59    4.21
  -2  -2  19    0.73    4.76
   2   2 -19    2.05    4.21
  -2   2  19   -0.28    4.55
   0  -2  19  528.25   27.43
   0  -2 -19  457.19   25.24
   0   2  19  484.44   24.65
   0   2 -19  490.07   25.61
  -2  -2 -19    9.47    5.60
   2  -2  19   -1.35    3.95
   2   2  19   -1.11    4.69
  -2   2 -19    7.13    5.86
  -4  -2 -19  893.82   42.78
   4  -2  19 1006.91   39.35
  -4   2 -19  843.89   40.07
   4   2  19  935.14   37.96
  -6  -2 -19   15.92    7.97
  -6  -2 -19    8.56    4.43
   6  -2  19    2.00    5.24
  -6   2 -19   13.49    6.16
   6   2  19    6.42    6.77
   8  -2  19  268.01   21.89
  -8  -2 -19  244.28   27.79
  -8  -2 -19  284.88   26.42
  -8   2 -19  283.93   23.61
   8   2  19  275.02   22.49
  -8   2 -19  298.51   25.71
  10  -2  19    6.50    7.05
 -10  -2 -19   11.33    8.40
 -10  -2 -19   11.29    8.14
 -10   2 -19    0.02    3.81
  10   2  19   -2.36    5.43
 -10   2 -19    5.22    7.31
 -12  -2 -19  124.07   27.36
  12  -2  19  130.00   18.11
 -12   2 -19  113.14   23.08
  12   2  19  105.84   20.44
 -12   2 -19  116.15   26.54
  14  -2  19   -1.38    7.88
  14   2  19   -2.42    6.34
 -14   2 -19   -0.46    4.22
  15  -3 -19    9.80    8.56
  15   3 -19   11.35   11.61
  13  -3 -19   56.77   17.40
  13   3 -19    4.92    8.08
  11  -3 -19   32.68   11.40
  11  -3 -19   32.64   11.65
  11   3 -19   70.38   20.08
   9   3 -19   16.42    9.86
   9   3 -19   17.64    9.23
   7   3 -19  142.30   26.88
   7   3 -19  121.66   24.69
  -5  -3  19   39.77   12.32
   5   3 -19   25.59    7.47
   5   3 -19   42.04   12.95
  -3  -3  19   44.89   12.45
   3  -3 -19   20.56    6.90
  -3   3  19   16.40    6.80
   3   3 -19   52.49   11.59
   1  -3 -19  181.62   15.35
  -1   3  19  157.76   14.26
  -1  -3 -19   50.94   12.00
   1   3  19   35.00    8.96
  -3  -3 -19  235.71   20.52
   3   3  19  263.39   18.73
  -5  -3 -19   43.70   12.90
  -5  -3 -19   45.55   13.65
   5   3  19   37.05   10.51
  -7  -3 -19   69.99   17.77
  -7  -3 -19   67.12   16.62
  -7   3 -19   45.45   12.91
   7   3  19   58.53   12.90
   9  -3  19   51.39   12.91
  -9  -3 -19   20.58   11.45
  -9  -3 -19   24.09   12.46
  -9   3 -19   55.58   14.71
  -9   3 -19   49.67   13.17
 -11  -3 -19   25.32   13.09
  11   3  19   27.09   11.24
 -11   3 -19   15.34   11.01
  13  -3  19   30.88   12.79
 -13   3 -19   -1.87    4.00
  13   3  19   11.61   10.89
 -15   3 -19    0.77    5.22
  14  -4 -19   76.27   19.32
  14   4 -19   83.58   23.88
  12  -4 -19    2.44    6.53
  12  -4 -19    6.97    4.47
  12   4 -19    4.54    4.68
  10  -4 -19  116.76   13.58
  10   4 -19  122.62   26.55
   8  -4 -19    8.63    6.24
   8   4 -19    4.07    5.69
   6  -4 -19  550.40   26.33
  -6  -4  19  613.30   37.86
   6   4 -19  494.81   36.05
  -4  -4  19    1.15    4.26
   4  -4 -19   -0.89    3.90
   4   4 -19    0.30    5.10
  -4   4  19    2.75    3.93
   4   4 -19    2.28    4.20
  -2  -4  19  246.28   20.97
   2  -4 -19  268.55   18.10
  -2   4  19  251.03   17.61
   2   4 -19  252.79   18.16
   0  -4  19   -2.74    4.91
   0  -4 -19    7.51    5.14
   0   4 -19    5.17    4.88
   0   4  19    2.72    4.49
   2  -4  19  500.88   26.89
  -2  -4 -19  420.88   27.18
   2   4  19  447.18   23.78
  -2   4 -19  467.46   26.11
   4  -4  19   -4.72    3.86
  -4  -4 -19   10.29    6.23
  -4  -4 -19   14.97    6.40
   4   4  19    5.34    5.92
  -4   4 -19    6.75    5.50
   6  -4  19  462.46   27.14
  -6  -4 -19  414.43   32.27
  -6   4 -19  479.75   29.53
   6   4  19  441.98   26.75
   8  -4  19    6.17    7.10
  -8  -4 -19   11.61   15.04
  -8  -4 -19   12.33    9.23
  -8   4 -19   19.92    7.21
   8   4  19    1.77    6.29
  10  -4  19  181.62   19.30
 -10  -4 -19  198.13   25.77
 -10   4 -19  167.21   17.96
 -10   4 -19  191.55   20.90
  10   4  19  175.94   19.90
  12  -4  19   -0.60    6.37
  12   4  19    1.86    7.45
 -12   4 -19    4.64    5.33
  14  -4  19   70.56   17.73
  14   4  19   52.82   16.56
  15  -5 -19   24.87   11.85
  15   5 -19    2.13    9.27
  13   5 -19   34.52   16.26
  11  -5 -19   16.63    7.65
  11  -5 -19   25.62    9.43
  11   5 -19   13.32    9.78
   9  -5 -19   13.14    7.21
   9   5 -19   31.90   14.54
   7  -5 -19   66.95    9.14
   7   5 -19   12.54    7.90
  -5  -5  19  142.71   18.64
   5   5 -19  150.92   14.76
   5   5 -19  124.17   18.39
  -3  -5  19   83.83   16.22
   3   5 -19   68.77   13.10
   3   5 -19   86.60   17.04
   1  -5 -19   98.96   12.01
  -1   5  19   92.87   11.09
   1  -5  19   79.77   15.69
  -1   5 -19   82.15   10.61
  -3  -5 -19   64.56   15.16
  -3  -5 -19   81.70   16.43
   3   5  19   51.03   11.17
  -5  -5 -19  114.61   23.19
  -5  -5 -19  140.53   18.30
   5   5  19  115.03   13.71
   7  -5  19  102.32   13.23
  -7   5 -19  123.92   15.37
   9  -5  19   21.54    8.93
  -9  -5 -19  102.51   24.55
  -9   5 -19   48.80   11.79
  -9   5 -19   60.25   14.70
   9   5  19  115.71   20.06
  11  -5  19   53.75   13.42
 -11   5 -19   64.22   15.66
 -11   5 -19   45.08   12.11
  11   5  19   30.28   12.34
  13   5  19   51.47   15.23
  14  -6 -19   11.64    7.13
  14   6 -19    9.14    8.34
  12  -6 -19   65.86   16.28
  12  -6 -19   66.98   15.41
  12   6 -19   32.82   13.23
  10  -6 -19    4.65    5.39
  10   6 -19   11.10    7.33
   8  -6 -19  143.34   13.43
   8   6 -19  141.18   15.52
   8   6 -19  115.34   22.97
   6  -6 -19   -2.75    3.77
  -6  -6  19    2.34    6.13
   6   6 -19    7.99    5.69
   6   6 -19    0.86    4.69
   4  -6 -19  462.43   23.87
  -4  -6  19  441.84   32.07
   4   6 -19  460.69   34.15
   2  -6 -19    9.76    5.27
  -2  -6  19    6.08    6.09
   2   6 -19    6.08    6.47
   2   6 -19    8.12    6.06
  -2   6  19    5.80    3.53
   0  -6  19  142.17   16.53
   0  -6 -19  140.54   14.52
   0   6  19  139.56   12.89
   0   6 -19  145.66   14.23
   0   6 -19  138.21   17.49
   2  -6  19   -1.83    4.43
  -2  -6 -19    6.98    4.54
  -2  -6 -19    6.47    4.90
   2   6  19    4.63    5.16
  -2   6 -19    3.79    4.85
   4  -6  19  267.42   20.27
  -4  -6 -19  270.71   23.89
   4   6  19  235.39   18.64
  -4   6 -19  254.16   19.60
   6  -6  19    5.22    6.26
  -6   6 -19   15.32    5.96
   6   6  19    1.89    6.02
   8  -6  19  474.92   28.93
   8   6  19  510.81   31.76
  -8   6 -19  502.19   30.66
  10  -6  19    3.31    6.66
 -10   6 -19    7.18    6.15
  10   6  19    4.86    7.23
  12  -6  19  157.43   19.22
  12   6  19  124.33   25.13
  14  -6  19   -3.43    6.63
  14   6  19   15.58    9.49
  13  -7 -19    9.46    9.52
  13  -7 -19   11.55    9.34
  13   7 -19    3.68    9.07
  11  -7 -19    8.21    7.29
  11   7 -19   19.65   12.81
   9  -7 -19   18.53    7.60
   9   7 -19    6.30    6.44
   7  -7 -19   32.68    8.47
   7   7 -19   36.55   14.33
  -5  -7  19   43.73   14.84
   5   7 -19   47.23   11.04
   5   7 -19   63.32   18.01
  -3  -7  19  127.05   22.77
   3   7 -19   96.25   11.86
   3   7 -19   97.70   19.91
  -1  -7  19   74.19   16.11
   1   7 -19   81.29   10.69
   1   7 -19   91.38   18.38
  -1  -7 -19   53.49   13.14
  -1  -7 -19   57.77   14.13
   1   7  19   44.18    9.53
   3  -7  19   43.79   11.72
  -3   7 -19   65.02   15.94
  -3   7 -19   64.79   12.55
   5  -7  19  103.13   12.92
  -5   7 -19  130.76   14.08
   7  -7  19   27.59    9.37
   7   7  19  100.16   18.41
  -7   7 -19   50.17   11.36
   9  -7  19   90.47   13.17
  -9   7 -19   92.51   12.53
  11   7  19   49.27   14.66
  13  -7  19   39.01   13.71
  13   7  19   17.61   14.17
  14  -8 -19   59.04   15.08
  14   8 -19   36.58   17.93
  12  -8 -19    7.56    4.19
  12  -8 -19   10.40    7.92
  12   8 -19   11.35    8.14
  10  -8 -19   51.79   11.92
  10   8 -19   46.32   15.76
   8  -8 -19    3.03    5.23
   8   8 -19    9.72    6.45
   6  -8 -19  213.07   15.93
   6   8 -19  210.64   25.99
   4  -8 -19    7.01    5.10
  -4  -8  19    7.07    7.63
   4   8 -19    3.17    5.27
   4   8 -19    0.76    5.78
  -2  -8  19  114.06   16.47
   2  -8 -19  129.74   16.95
   2  -8 -19  124.06   13.47
   2   8 -19  129.58   18.66
   2   8 -19  123.68   13.21
  -2   8  19  122.47    9.94
   0  -8 -19    9.25    4.51
   0  -8  19    4.08    6.64
   0  -8 -19    7.57    4.91
   0   8 -19    5.12    5.78
   0   8  19    6.34    3.96
   0   8 -19   10.74    4.98
  -2  -8 -19  289.35   27.18
  -2  -8 -19  308.54   24.55
   2  -8  19  289.56   22.33
  -2   8 -19  256.60   23.76
  -2   8 -19  282.34   19.71
   2   8  19  317.48   19.15
  -4  -8 -19   19.62    9.74
   4  -8  19    7.50    5.83
  -4   8 -19   12.06    4.72
  -4   8 -19   12.25    5.82
   4   8  19    2.12    5.72
   6  -8  19  355.86   23.89
   6   8  19  326.65   24.23
  -6   8 -19  308.96   23.09
  -6   8 -19  339.99   22.53
   8  -8  19    3.95    6.21
  -8   8 -19    0.97    4.20
  -8   8 -19    7.63    3.71
   8   8  19   -1.15    6.17
  10  -8  19  133.49   16.42
  10   8  19  114.34   21.94
  12  -8  19    7.52    6.56
  12   8  19   -1.64    6.44
  13  -9 -19    7.55    8.15
  13  -9 -19    9.12    7.82
  13   9 -19   11.32   12.66
  11  -9 -19   75.73   14.29
  11   9 -19   17.94   10.92
   9   9 -19   35.69   16.30
   7   9 -19   39.87   17.26
   7   9 -19   38.83   13.93
   5  -9 -19   32.54   11.25
   5  -9 -19   19.98    7.01
  -5  -9  19   80.69   20.59
   5   9 -19   66.31   17.59
   3  -9 -19   93.19   19.82
  -3  -9  19   25.09   11.97
   3   9 -19   23.62   10.12
   3   9 -19   36.98    9.02
   1  -9 -19   55.14   14.72
   1  -9 -19   52.91   11.89
  -1   9  19   54.28    6.33
  -1  -9 -19  137.63   26.09
  -1  -9 -19  139.50   16.51
   1   9  19  114.65   11.31
  -3  -9 -19   58.14   15.47
  -3  -9 -19   35.60   13.26
   3   9  19   44.63   10.04
   5  -9  19   60.94   13.26
  -5  -9 -19  156.52   43.78
  -5   9 -19   67.40    9.57
  -5   9 -19   55.25   12.94
   7  -9  19   71.15   13.76
  -7   9 -19   61.60   13.55
   7   9  19   10.83    8.57
   9  -9  19   19.70    8.37
   9   9  19   34.56   11.80
  11  -9  19   25.63   10.33
  11   9  19    7.22    9.36
  12 -10 -19   53.66   13.29
  12 -10 -19   95.08   17.40
  12 -10 -19   82.97   18.09
  12  10 -19   60.44   24.15
  10 -10 -19   18.48    7.80
  10 -10 -19    9.61    6.68
  10  10 -19    8.48    7.52
   8 -10 -19   77.62   10.76
   8 -10 -19   91.17   19.15
   8  10 -19   71.15   22.79
   6 -10 -19   14.22    7.51
   6  10 -19   12.43    6.86
  -4 -10  19   92.38   21.91
   4 -10 -19   77.81   10.94
   4 -10 -19  103.45   21.70
   4  10 -19   95.96   24.16
   4  10 -19   98.86   12.99
   2 -10 -19   13.35    6.84
  -2 -10  19   11.68    7.02
   2 -10 -19   19.71    7.25
   2  10 -19    6.72    6.18
   2  10 -19   16.59    5.66
   0 -10 -19  254.79   26.82
   0 -10  19  274.82   24.29
   0 -10 -19  313.32   24.42
   0  10  19  263.40   14.02
   0  10 -19  266.61   26.73
   0  10 -19  265.31   19.14
  -2 -10 -19   25.46    9.90
   2 -10  19    5.81    4.81
  -2 -10 -19    8.10    7.23
  -2  10 -19    4.98    3.85
   2  10  19    9.26    4.80
  -2  10 -19   10.05    4.65
  -4 -10 -19  473.03   48.49
   4 -10  19  481.33   29.29
  -4  10 -19  446.10   23.82
   4  10  19  415.24   25.42
  -4  10 -19  457.44   31.38
   6 -10  19    0.03    5.51
   6  10  19    1.08    5.76
  -6  10 -19    9.34    5.33
   8 -10  19  152.57   16.34
   8  10  19  120.29   15.95
  10 -10  19   -0.19    5.20
  10  10  19    4.42    7.07
  11 -11 -19    4.79    6.84
  11 -11 -19    5.07    7.85
  11  11 -19   15.48   10.55
  11  11 -19   10.87   12.31
   9 -11 -19   39.89   13.41
   9 -11 -19   52.45   11.88
   9  11 -19   18.19   11.77
   7 -11 -19    7.35    7.28
   7 -11 -19   13.00    7.00
   7  11 -19   44.83   17.23
   5 -11 -19   63.99   17.66
   5 -11 -19   56.72   11.87
   5  11 -19   32.47   12.80
  -3 -11  19   43.84   13.99
   3 -11 -19   34.57    9.56
   3 -11 -19   14.71   10.06
   3  11 -19   44.33   14.94
   3  11 -19   57.09   12.65
   1 -11 -19   67.02   15.10
   1 -11 -19   60.50   17.81
   1  11 -19   43.93   10.22
   1  11 -19   36.70   12.94
   1 -11  19   26.75   10.67
  -1 -11 -19   17.72   10.47
   1  11  19   16.61    5.11
  -1  11 -19   50.37   15.79
  -1  11 -19   30.85    9.52
  -3 -11 -19   67.51   24.73
   3 -11  19   31.28    9.35
  -3  11 -19   21.97    7.13
  -3  11 -19   35.54   11.94
   5 -11  19   11.13    8.25
  -5  11 -19    6.67    6.03
   5  11  19    4.50    6.75
   7 -11  19   12.57    6.97
   7  11  19   38.63   13.30
  -7  11 -19   12.38    5.55
   9 -11  19   34.83   11.13
   9  11  19    3.06    7.91
  10 -12 -19   63.42   18.33
  10 -12 -19   59.61   12.78
  10  12 -19   19.67   14.68
  10  12 -19   39.77   17.29
   8 -12 -19    6.71    5.03
   8 -12 -19    4.67    7.61
   8  12 -19    6.14    9.40
   8  12 -19    8.20    8.46
   6 -12 -19   49.46   15.50
   6 -12 -19   84.71   14.55
   6  12 -19   57.24   19.65
   4 -12 -19    8.39    5.83
   4 -12 -19    8.64    6.86
   4  12 -19    7.41    5.51
   4  12 -19   11.89    7.12
  -2 -12  19  119.37   23.34
   2 -12 -19  152.13   17.42
   2  12 -19  139.86   14.99
   2  12 -19  124.79   27.66
   0 -12 -19   21.40    9.56
   0 -12  19    9.50    6.72
   0  12 -19    1.83    5.56
   0  12 -19   15.15    6.09
   2 -12  19  230.41   22.56
   2  12  19  166.92   11.74
  -2  12 -19  224.10   24.64
   4 -12  19    8.94    5.98
  -4  12 -19   -0.40    6.10
   4  12  19    0.77    4.56
   6 -12  19  113.63   15.41
  -6  12 -19   90.13   18.02
   6  12  19  122.93   16.09
   8 -12  19   12.63    5.81
   8  12  19   -1.35    5.97
   9 -13 -19    8.40    7.63
   9 -13 -19    4.62    8.60
   9  13 -19    7.75   11.19
   9  13 -19   14.38   14.92
   7 -13 -19   15.85   11.30
   7 -13 -19   32.73   10.38
   7  13 -19   23.60   14.79
   7  13 -19   42.26   16.22
   5 -13 -19   18.13    9.25
   5  13 -19   30.70   12.78
   5  13 -19   46.41   15.63
   5  13 -19   43.65   12.62
  -3 -13  19   16.82   11.34
   3 -13 -19   59.56   14.63
   3  13 -19   10.47    8.37
   3  13 -19   14.74    8.46
   3  13 -19   19.80    8.49
  -1 -13  19   53.31   16.65
   1 -13 -19   34.31   12.46
   1  13 -19   63.17   13.80
   1  13 -19   60.78   18.68
   1  13 -19   31.50    9.91
   1 -13  19   17.79    8.89
  -1  13 -19    7.33    9.68
  -1  13 -19   -1.61    2.95
  -1  13 -19   -0.44    2.62
   3 -13  19    4.88    7.79
   3  13  19   -0.15    2.14
  -3  13 -19    5.72    6.81
   5 -13  19   29.93   10.00
  -5  13 -19    9.21    7.43
   5  13  19   49.56   11.49
   7 -13  19   46.61   12.94
   6 -14 -19    7.54    6.54
   6  14 -19   -1.18    6.86
   6  14 -19   13.90    8.29
   4 -14 -19  111.49   19.57
   4  14 -19   94.79   21.30
   4  14 -19   81.82   17.21
   4  14 -19   61.62   19.44
  -2 -14  19   10.66    8.06
   2 -14 -19   12.43    8.36
   2  14 -19    8.87    6.24
   2  14 -19    7.73    6.48
   0 -14  19  136.69   26.08
   0  14 -19   98.71   24.52
   2 -14  19    8.82    6.82
  -2  14 -19    1.67    6.04
   4 -14  19  144.06   19.03
   6 -14  19   10.14    6.82
   6  14  19   -1.75    3.30
  -6  14 -19   -0.62    3.79
   3 -15 -19    0.37    8.54
   3  15 -19    0.01    4.06
   3  15 -19    7.85   11.21
   3  15 -19    1.85    5.60
  -1 -15  19   -0.02    8.95
   1  15 -19    8.88   11.10
   1  15 -19    0.12    3.33
   1  15 -19   -0.73    3.31
   1 -15  19   26.55   12.81
  -1  15 -19    9.90    8.63
   3 -15  19   29.99   11.83
  -3  15 -19   11.68   11.19
  14   0 -20   17.08    8.70
  12   0 -20   88.10   21.65
  10   0 -20    2.49    5.08
  10   0 -20    0.46    5.94
   8   0 -20  119.63   17.58
   8   0 -20  145.25   14.69
  -6   0  20    7.86    6.64
   6   0 -20    2.63    4.42
  -4   0  20  397.82   26.51
   4   0 -20  433.44   23.36
  -2   0  20   -2.95    4.12
   2   0 -20    4.00    4.19
   0   0 -20  419.53   24.39
   0   0  20  442.81   25.04
  -2   0 -20   10.44    5.71
   2   0  20    1.00    5.91
   4   0  20   59.06   12.26
  -4   0 -20   54.55   13.90
  -6   0 -20   12.66    6.59
   6   0  20   -1.68    5.23
  -8   0 -20  185.90   20.84
  -8   0 -20  203.51   22.24
 -10   0 -20    9.05    5.75
  10   0  20   -3.92    4.64
  12   0  20  157.75   18.73
  14   0  20   -2.62    6.85
 -14   0 -20    0.29    6.43
  15  -1 -20   28.26   12.75
  15   1 -20   51.63   18.25
  13  -1 -20   58.03   16.40
  13   1 -20   38.07   14.93
  11  -1 -20   35.31   11.65
  11  -1 -20   36.89   11.37
  11   1 -20   71.43   17.24
   9  -1 -20   24.70   11.67
   9  -1 -20   28.11    9.20
   9   1 -20   11.52    7.59
   9   1 -20   22.46   10.73
   7   1 -20   66.79   16.81
   7   1 -20   79.06   11.20
  -5  -1  20   61.14   14.65
   5   1 -20   41.84   10.79
  -5   1  20   94.46   17.07
   3  -1 -20   46.03   10.63
  -3   1  20   57.24   12.84
  -1  -1  20   87.88   12.44
   1   1 -20   72.89   13.33
  -1  -1 -20   32.81    9.37
   1  -1  20   73.19   14.11
  -1   1 -20   71.91   14.10
   1   1  20   16.64    7.35
  -3  -1 -20   85.11   17.05
   3   1  20   65.04   12.53
   5  -1  20   87.49   12.43
  -5   1 -20   78.28   15.82
  -7  -1 -20   82.26   19.05
  -7  -1 -20   51.81   13.83
   7   1  20   71.14   14.32
   9  -1  20   58.11   14.83
  -9   1 -20   62.67   16.23
  -9   1 -20   65.12   18.34
  11  -1  20    8.73    8.41
  11   1  20   21.25    9.81
 -11   1 -20    8.89    7.49
  13  -1  20   21.27   12.12
 -13  -1 -20    3.04    8.28
  13   1  20    1.31    7.70
 -13   1 -20   24.10   12.33
  14  -2 -20  117.27   24.03
  14   2 -20  145.58   30.88
  12  -2 -20    8.19    5.40
  12   2 -20   10.45    7.71
  10  -2 -20   64.95   13.41
  10  -2 -20   87.89   18.34
  10   2 -20   92.21   20.04
  10   2 -20   66.55   18.08
   8  -2 -20    0.27    5.30
   8   2 -20    1.52    4.35
   8   2 -20   -4.10    4.42
  -6  -2  20  141.78   18.10
   6  -2 -20  128.64   13.42
   6   2 -20  137.38   13.93
   6   2 -20  156.63   19.39
   4  -2 -20   -1.02    3.47
  -4  -2  20    2.75    4.84
   4   2 -20    0.03    3.74
  -4   2  20    5.60    4.71
  -2  -2  20  277.98   21.57
   2  -2 -20  263.17   18.50
  -2   2  20  243.12   18.90
   2   2 -20  282.68   19.21
   0  -2  20   -0.94    4.36
   0  -2 -20    5.46    4.88
   0   2 -20    1.74    4.29
   0   2  20   -1.93    4.22
  -2  -2 -20   52.61   13.25
   2  -2  20   35.94    9.73
   2   2  20   51.59   11.61
  -2   2 -20   51.34   12.76
  -4  -2 -20   17.57    7.16
   4  -2  20    3.64    6.59
  -4   2 -20   14.76    6.63
   4   2  20   -0.89    4.96
   6  -2  20   49.40   11.21
  -6  -2 -20   54.63   14.38
  -6  -2 -20   45.50   13.91
  -6   2 -20   69.70   15.34
   6   2  20   50.84   11.89
   8  -2  20    0.47    6.30
  -8  -2 -20   12.50    6.88
  -8   2 -20   27.79    9.20
  -8   2 -20   16.46    7.11
   8   2  20    3.82    6.78
  10  -2  20  106.30   15.25
 -10   2 -20  117.82   16.53
  10   2  20  103.99   15.09
 -10   2 -20  129.14   24.63
  12  -2  20    3.91    7.82
 -12   2 -20    8.72    5.87
  12   2  20    0.48    7.66
  14  -2  20   44.00   14.14
  14   2  20   69.27   18.03
  15  -3 -20   26.02   11.65
  15   3 -20    7.18    9.72
  13  -3 -20   21.70   10.07
  13   3 -20   43.31   17.99
  11  -3 -20   44.46   12.56
  11  -3 -20   32.30   11.60
  11   3 -20   24.32   11.23
   9   3 -20   61.67   14.26
   9   3 -20   52.66   15.05
   7  -3 -20   89.34   11.37
  -5  -3  20   43.71   13.59
   5   3 -20   46.81   14.65
   5   3 -20   59.70   11.85
   3  -3 -20   53.36   10.42
  -3  -3  20   22.48    8.71
  -3   3  20   44.24   11.07
   3   3 -20   22.95    8.15
   1  -3 -20   58.86   12.23
  -1   3  20   55.83   11.45
  -1  -3 -20   75.98   14.33
   1  -3  20   34.93   10.17
  -1   3 -20   40.41   10.59
  -3  -3 -20   87.91   17.28
   3   3  20   88.63   15.15
  -5  -3 -20  157.33   18.97
   5   3  20  194.00   17.46
   7  -3  20   82.30   11.95
  -7   3 -20  119.64   21.49
  -9  -3 -20   70.82   25.86
   9  -3  20   24.85   10.08
   9   3  20   45.25   12.49
  -9   3 -20   15.30    9.76
  -9   3 -20   18.45    7.76
  11  -3  20   32.39   11.05
 -11   3 -20    4.29    9.91
  11   3  20    7.69    9.17
 -11   3 -20   19.82   10.44
  13  -3  20   14.81   10.93
 -13   3 -20   -0.20    5.03
  13   3  20   46.17   15.88
  14  -4 -20    8.76    8.02
  14   4 -20   16.56   11.62
  12  -4 -20  120.89   17.55
  12  -4 -20  133.08   17.88
  12   4 -20  180.22   35.58
  10  -4 -20    4.03    5.90
  10   4 -20    6.17    5.39
   8  -4 -20  235.39   17.88
   8   4 -20  190.89   23.71
  -6  -4  20    8.62    7.56
   6  -4 -20    6.39    5.72
   6   4 -20    8.67    7.32
  -4  -4  20   11.15    8.64
   4  -4 -20   11.02    5.72
   4   4 -20    6.83    6.08
  -4   4  20    1.91    4.84
   4   4 -20    9.38    7.47
   2  -4 -20    2.61    4.76
  -2  -4  20   11.23    7.33
  -2   4  20    1.70    4.22
   2   4 -20   12.47    6.85
   0  -4  20  258.36   20.50
   0  -4 -20  232.57   18.97
   0   4  20  249.43   17.51
   0   4 -20  216.38   17.55
  -2  -4 -20    6.25    4.98
   2  -4  20   -4.54    4.47
   2   4  20   -1.58    4.59
  -2   4 -20    7.80    5.55
   4  -4  20  268.09   20.25
  -4  -4 -20  286.81   25.32
  -4  -4 -20  273.54   24.15
  -4   4 -20  272.98   21.80
   4   4  20  272.53   19.78
  -6  -4 -20   12.13    6.86
   6  -4  20    2.40    5.93
   6   4  20    5.81    6.83
  -6   4 -20   17.21    6.33
  -8  -4 -20  379.93   33.64
   8  -4  20  303.40   23.56
  -8   4 -20  377.49   28.47
   8   4  20  336.21   25.44
  10  -4  20    2.64    6.27
  10   4  20    3.68    7.81
 -10   4 -20   14.75    9.28
 -10   4 -20   11.98    6.53
  12  -4  20   88.73   18.94
  12   4  20   79.82   18.96
 -12   4 -20   64.30   16.84
  14  -4  20   -1.85    8.02
  14   4  20   -0.44    7.75
 -14   4 -20   -0.47    3.99
  15  -5 -20    5.38    7.93
  15   5 -20   30.49   14.35
  13  -5 -20   30.83   10.76
  13   5 -20   13.91   12.94
  11  -5 -20   24.78   10.74
  11  -5 -20   13.45    8.52
  11   5 -20   35.88   13.38
   9  -5 -20   20.35    7.74
   9   5 -20   10.95    8.43
   7   5 -20   44.75   14.76
  -5  -5  20   47.22   15.25
   5   5 -20   53.37   11.57
   5   5 -20   52.25   15.09
  -3  -5  20   86.78   17.70
   3   5 -20  113.89   12.65
   3   5 -20  107.43   20.77
   1  -5 -20  232.51   18.23
  -1   5  20  215.76   16.69
   1  -5  20  173.05   16.98
  -1   5 -20  143.35   14.26
   3  -5  20   27.33    9.47
  -3   5 -20   54.56   12.62
  -5  -5 -20   64.60   15.77
   5   5  20   51.36   12.47
   7  -5  20   30.74   10.33
  -7   5 -20   49.68   12.18
   9  -5  20   85.23   16.75
  -9   5 -20   88.82   17.28
  -9   5 -20   86.06   18.73
  11   5  20   50.47   14.94
 -11   5 -20   32.72   12.82
  13  -5  20   94.27   20.07
  14  -6 -20  103.42   22.09
  14   6 -20   89.80   25.89
  12  -6 -20   12.35    6.44
  12  -6 -20    2.08    5.66
  12   6 -20   11.25    8.59
  10  -6 -20  106.11   13.88
  10   6 -20   97.50   24.40
   8  -6 -20   -2.54    4.51
   8   6 -20    4.51    4.78
   8   6 -20   -2.02    6.43
   6  -6 -20   70.79   10.20
  -6  -6  20   62.49   17.14
   6   6 -20   69.22   19.18
   4  -6 -20    2.67    5.13
  -4  -6  20    2.78    5.31
   4   6 -20    0.62    4.59
   4   6 -20    8.86    6.57
  -2  -6  20   94.15   18.95
   2  -6 -20  116.28   12.99
  -2   6  20  118.90   11.92
   2   6 -20  113.53   12.57
   0  -6  20    1.41    5.28
   0  -6 -20   13.27    5.08
   0   6 -20    2.81    4.73
   0   6 -20    6.30    4.40
   0   6  20    4.57    4.45
  -2  -6 -20  186.14   19.05
   2  -6  20  185.09   17.32
   2   6  20  180.94   15.36
  -2   6 -20  187.74   16.66
   4  -6  20    3.01    5.28
  -4  -6 -20   13.45    6.72
   4   6  20    0.19    5.40
  -4   6 -20   10.93    5.34
  -6  -6 -20  255.21   34.26
   6  -6  20  277.09   21.82
  -6   6 -20  272.59   22.06
   6   6  20  248.45   20.97
   8  -6  20   -0.94    5.61
  -8   6 -20   20.42    8.19
   8   6  20    5.22    6.93
  10  -6  20  137.25   17.36
 -10   6 -20  143.39   17.55
  10   6  20  154.41   20.19
 -10   6 -20  116.85   14.52
  12  -6  20    9.19    8.48
  12   6  20    6.00    9.94
  13  -7 -20   11.17    9.07
  13   7 -20    6.75   10.60
  11  -7 -20    9.27    7.88
  11   7 -20    4.39   12.33
   9  -7 -20    1.93    5.34
   9   7 -20   10.02    8.29
   7  -7 -20   47.84    9.92
   7   7 -20   35.31   10.25
   5  -7 -20   24.77    7.77
  -5  -7  20   40.35   13.35
   5   7 -20   69.51   14.90
  -3  -7  20   26.18   11.26
   3   7 -20   33.85   12.50
   3   7 -20   16.89    7.43
  -1  -7  20  163.13   18.59
   1   7 -20  182.29   21.31
   1   7 -20  179.64   15.73
  -1  -7 -20   96.68   21.30
  -1  -7 -20   83.45   16.72
   1  -7  20   24.47    9.54
  -1   7 -20   38.03    9.74
  -1   7 -20   41.61   12.47
  -3  -7 -20   58.17   14.88
   3  -7  20  103.25   13.90
  -3   7 -20  104.83   13.07
  -3   7 -20  101.56   14.95
  -5  -7 -20  135.68   24.87
   5  -7  20   41.67   11.31
  -5   7 -20   69.52   14.21
   5   7  20  117.43   14.07
   7  -7  20   88.20   12.68
  -7   7 -20   84.83   16.18
   9  -7  20   40.90    9.91
   9   7  20   91.39   19.09
  11  -7  20   68.33   14.83
  11   7  20   31.90   12.21
  13   7  20   41.96   17.00
  12  -8 -20   65.75   14.01
  12  -8 -20   84.11   18.03
  12   8 -20   52.92   18.67
  10  -8 -20   -1.06    5.15
  10   8 -20   14.69    9.07
   8  -8 -20  109.76   12.22
   8   8 -20   88.16   22.55
   6  -8 -20    2.57    4.61
   6   8 -20   10.25    6.94
   6   8 -20    4.11    4.55
   4  -8 -20   33.65    9.68
  -4  -8  20    9.30    8.62
   4   8 -20   32.10    9.67
   4   8 -20   17.01   10.01
  -2  -8  20    4.86    6.45
   2  -8 -20    7.17    4.45
   2  -8 -20   12.36    5.04
   2   8 -20   14.05   10.34
   2   8 -20   11.41    6.23
  -2   8  20    5.96    3.34
   0  -8  20  115.40   15.81
   0  -8 -20  116.63   14.57
   0  -8 -20  119.83   17.56
   0   8 -20  118.28   13.00
   0   8  20  108.55   11.21
   0   8 -20  116.93   17.13
  -2  -8 -20   10.35    6.43
  -2  -8 -20   13.96    6.27
   2  -8  20   10.29    6.36
   2   8  20   13.10    6.77
  -2   8 -20   11.89    5.05
  -2   8 -20    8.32    5.76
  -4  -8 -20  142.70   19.99
   4  -8  20  131.63   15.00
   4   8  20  124.07   14.51
  -4   8 -20  122.56   13.89
  -4   8 -20  122.60   15.52
   6  -8  20    9.71    6.63
  -6   8 -20   19.30    6.61
  -6   8 -20    7.71    4.65
   6   8  20    4.87    6.50
   8  -8  20  172.11   18.43
  -8   8 -20  187.80   17.41
   8   8  20  183.73   20.67
  10  -8  20    2.89    7.02
  10   8  20    6.80    8.11
  12  -8  20   54.12   14.67
  12   8  20   61.06   21.02
  11  -9 -20   10.04    8.43
  11   9 -20   32.55   15.39
   9  -9 -20   38.54   10.34
   9   9 -20   37.73   17.72
   7  -9 -20   38.54    8.79
   7   9 -20   57.73   17.11
   5  -9 -20   65.70   17.82
  -5  -9  20   24.73   10.95
   5   9 -20   15.34    9.29
  -3  -9  20   39.51   13.71
   3   9 -20   62.52   12.96
   3   9 -20   53.63   16.23
  -1  -9  20   25.32   10.90
   1  -9 -20   86.54   19.59
   1   9 -20   48.24   14.19
   1   9 -20   52.01   11.23
  -1  -9 -20   45.26   12.65
   1  -9  20   50.43   12.69
  -1  -9 -20   27.54   11.30
  -1   9 -20   60.60   15.33
   1   9  20   33.12    8.62
   3  -9  20   61.51   14.80
  -3   9 -20   54.32   11.43
  -3   9 -20   46.52   13.02
   5  -9  20  102.96   14.04
  -5   9 -20  136.91   16.32
  -5   9 -20  127.04   13.89
  -7   9 -20   27.19    8.39
   9  -9  20   46.54   13.47
   9   9  20    8.74    8.78
  11  -9  20   16.70   10.32
  11   9  20   29.44   12.75
  12 -10 -20    0.16    6.28
  12 -10 -20    7.62    4.75
  12 -10 -20    5.95    6.88
  12  10 -20    7.65    7.83
  10 -10 -20   31.57   13.69
  10 -10 -20   40.04   11.10
  10  10 -20   36.02   17.56
   8 -10 -20    4.91    5.76
   8 -10 -20   12.72    7.14
   8  10 -20    7.02    6.69
   6 -10 -20  131.44   13.51
   6 -10 -20  130.99   23.96
   6  10 -20  112.09   26.14
  -4 -10  20    8.25    5.95
   4 -10 -20    9.79    4.38
   4 -10 -20    8.94    6.00
   4  10 -20    7.22    4.62
   2 -10 -20  174.76   17.58
  -2 -10  20  185.07   21.35
   2 -10 -20  198.18   23.30
   2  10 -20  198.16   17.33
   0 -10 -20    5.34    5.49
   0 -10  20    8.54    8.03
   0 -10 -20   15.13    7.42
   0  10 -20   24.10    6.67
   0  10 -20    8.06    6.15
   0  10  20   12.26    4.00
  -2 -10 -20   33.99   12.84
   2 -10  20   37.75   11.62
  -2  10 -20   55.22   12.47
  -2  10 -20   50.95   15.03
   2  10  20   40.99    9.79
   4 -10  20    9.83    6.79
   4  10  20    6.62    6.11
  -4  10 -20   25.49    7.30
  -4  10 -20   12.27    7.04
   6 -10  20   26.01    9.93
   6  10  20   40.69   11.97
  -6  10 -20    8.20    7.23
   8 -10  20    5.03    6.13
  -8  10 -20    5.84    4.41
   8  10  20    2.66    5.89
  10 -10  20   68.07   17.82
  10  10  20   80.86   20.08
  11 -11 -20    6.04    8.49
  11 -11 -20   11.53    8.84
  11  11 -20    2.31    9.37
  11  11 -20    1.88    7.78
   9 -11 -20    5.08    7.53
   9 -11 -20   14.61    9.92
   9  11 -20    9.70   12.30
   7 -11 -20    7.21    6.78
   7 -11 -20   21.17   11.97
   7  11 -20   11.61    8.06
   5 -11 -20   31.29   12.38
   5 -11 -20   19.57    8.67
   5  11 -20   61.18   18.38
   5  11 -20   68.55   15.01
  -3 -11  20   24.31   10.30
   3 -11 -20   25.93   11.70
   3 -11 -20   44.90   11.70
   3  11 -20   12.64    7.35
   3  11 -20   13.81    6.55
  -1 -11  20   56.84   15.46
   1  11 -20   70.60   18.80
   1  11 -20   77.79   13.82
   1 -11  20   20.38   10.10
  -1 -11 -20   42.91   14.03
  -1  11 -20   14.63    9.99
  -1  11 -20   22.95    7.85
   3 -11  20   26.20   10.45
  -3  11 -20   21.12    7.89
   3  11  20   29.81    7.30
  -3  11 -20   23.71   10.92
   5 -11  20   15.60    7.17
   5  11  20   38.40   11.39
  -5  11 -20   18.79    8.28
   7 -11  20   39.79   11.50
  -7  11 -20   42.71   11.78
   9 -11  20   10.68    8.09
   9  11  20   36.15   13.42
  10 -12 -20    6.18    7.12
  10 -12 -20    8.61    6.03
  10  12 -20   21.05   11.89
  10  12 -20    7.19    7.48
   8 -12 -20   34.22   10.71
   8 -12 -20   33.80   13.99
   8  12 -20   14.49   11.70
   6 -12 -20   15.31    6.63
   6 -12 -20    1.32    5.12
   6  12 -20    9.03    9.94
  -4 -12  20  117.91   24.92
   4 -12 -20  115.30   15.04
   4  12 -20  137.29   32.61
   2 -12 -20   18.16    8.37
  -2 -12  20   13.22    7.31
   2  12 -20   17.69    6.69
   2  12 -20    9.20    6.79
   0 -12  20   90.56   20.01
   0 -12 -20  112.20   22.36
   0  12 -20   88.54   12.11
   0  12 -20   81.57   20.18
   2 -12  20   11.97    6.47
  -2  12 -20    9.56    5.58
  -2  12 -20    1.68    4.02
   2  12  20    2.04    2.89
   4 -12  20    3.06    6.96
   4  12  20   -3.56    4.52
  -4  12 -20    3.53    7.31
   6 -12  20   20.79    7.44
   6  12  20    3.20    5.96
  -6  12 -20    6.89    4.68
   8 -12  20   64.95   14.67
   8  12  20   61.57   15.32
   7 -13 -20    9.25    7.39
   7  13 -20   29.02   12.13
   7  13 -20   26.23   14.66
   5 -13 -20   47.77   12.84
   5  13 -20    8.60   11.39
   5  13 -20   15.56   11.86
   5  13 -20   31.49   12.91
  -3 -13  20   19.64   12.74
   3 -13 -20   29.52   11.81
   3  13 -20   43.41   11.79
   3  13 -20   33.70   15.14
  -1 -13  20   42.05   13.96
   1 -13 -20   55.06   16.11
   1  13 -20   19.17   12.27
   1  13 -20   39.37   12.17
   1 -13  20   26.01   11.61
  -1  13 -20   28.54   12.89
   3 -13  20   16.51    9.68
  -3  13 -20   25.96   10.75
   5 -13  20   33.75   11.02
  -5  13 -20   32.20   11.64
   7 -13  20   15.62    8.78
   7  13  20   20.44    8.73
   6 -14 -20   68.23   15.54
   6  14 -20   64.81   24.79
   6  14 -20   66.17   19.18
   4 -14 -20   12.98    9.16
   4  14 -20    7.36    6.90
   4  14 -20   18.41   10.13
  -2 -14  20   76.06   20.99
   2  14 -20   92.01   19.19
   2  14 -20  127.36   31.84
   0 -14  20   13.77    7.28
   0  14 -20   14.00    8.34
   2 -14  20   42.33   14.48
  -2  14 -20   40.02   14.55
   4 -14  20   17.71    9.21
  -4  14 -20    2.65    5.87
   4  14  20    0.55    2.58
   3  15 -20   -1.63    4.32
   3  15 -20    2.13    5.12
   3  15 -20    6.85   10.06
  -1 -15  20   26.73   15.16
   1  15 -20   30.68   14.12
   1 -15  20   12.67    9.83
  -1  15 -20   -5.78    5.43
  14   0 -21  126.87   28.66
  12   0 -21   10.62    7.02
  10   0 -21  442.90   28.67
  10   0 -21  474.47   36.52
   8   0 -21    2.91    6.38
   8   0 -21   -5.89    3.83
  -6   0  21  649.69   36.58
   6   0 -21  646.27   31.67
   4   0 -21    6.29    5.38
  -4   0  21    3.60    5.24
  -2   0  21  647.58   33.45
   2   0 -21  702.98   31.84
   0   0  21    3.74    5.69
   0   0 -21   10.11    5.64
  -2   0 -21  536.47   30.42
   2   0  21  536.36   28.17
   4   0  21    0.46    5.86
  -4   0 -21   11.77    5.93
   6   0  21  463.31   27.61
  -6   0 -21  452.71   32.42
   8   0  21    4.69    7.11
  -8   0 -21    9.35    5.98
  10   0  21  161.18   19.09
 -10   0 -21  192.47   33.02
 -10   0 -21  167.80   21.58
  12   0  21    1.16    6.33
  14   0  21   38.85   13.90
  15  -1 -21   51.74   18.08
  15   1 -21   43.72   17.35
  13   1 -21   76.43   20.63
  11  -1 -21   80.48   18.88
  11   1 -21   30.53   11.83
   9   1 -21   44.20   13.27
   9   1 -21   38.89   10.05
   7   1 -21   36.95   10.58
   7   1 -21   46.75   14.24
   5  -1 -21   37.51    9.90
  -5  -1  21   65.81   15.11
  -5   1  21   29.27    9.93
   3  -1 -21   83.00   11.06
  -3  -1  21   56.47   13.62
  -3   1  21   85.35   12.03
   1  -1 -21   83.60   11.51
  -1   1  21  104.53   12.94
  -1  -1 -21   80.72   11.54
   1   1  21   80.21   11.24
  -3  -1 -21   46.99   12.55
   3   1  21   25.08    9.30
   5  -1  21   31.02    9.92
  -5   1 -21   55.91   15.36
  -7  -1 -21   33.66   11.51
  -7  -1 -21   15.08   14.19
   7   1  21   21.84    9.48
  -7   1 -21   58.37   16.36
   9  -1  21   24.59   10.17
  -9  -1 -21   67.17   19.03
  -9  -1 -21   51.85   15.94
   9   1  21   55.38   13.43
  -9   1 -21   28.81   10.66
  11  -1  21   42.50   12.03
 -11   1 -21   37.61   14.72
 -11   1 -21   48.97   17.17
  13  -1  21    4.89    8.60
  13   1  21   18.39   12.06
  14  -2 -21    6.67    5.66
  14   2 -21   14.57    9.40
  12  -2 -21  143.50   20.11
  12   2 -21  184.11   34.84
  10  -2 -21    6.36    4.84
  10  -2 -21   -1.30    5.57
  10   2 -21    3.57    3.48
   8  -2 -21  463.82   26.73
   8   2 -21  410.78   33.82
   8   2 -21  439.90   27.20
   6  -2 -21   -3.85    3.18
  -6  -2  21    3.14    5.68
   6   2 -21    5.95    5.44
   6   2 -21    2.97    4.11
  -4  -2  21  113.55   20.90
   4  -2 -21  106.11   12.17
   4   2 -21  120.26   12.49
  -4   2  21  105.57   13.31
   2  -2 -21    6.72    5.07
  -2  -2  21   -1.43    4.13
  -2   2  21    3.25    4.86
   2   2 -21    3.52    4.61
   0  -2 -21  370.43   23.70
   0   2  21  380.94   22.91
   0   2 -21  356.90   22.87
   2  -2  21    2.45    5.59
  -2  -2 -21    9.90    4.87
  -2   2 -21    2.42    4.67
   2   2  21   -3.16    4.23
   4  -2  21  593.05   30.93
  -4  -2 -21  489.46   35.57
   4   2  21  586.88   30.18
  -4   2 -21  563.72   33.55
  -6  -2 -21    7.99    4.90
   6  -2  21   -1.78    4.53
  -6  -2 -21    9.74    7.89
  -6   2 -21   17.56    7.49
  -8  -2 -21  173.71   24.42
  -8  -2 -21  190.19   25.04
   8  -2  21  154.26   17.24
  -8   2 -21  166.45   19.32
  -8   2 -21  164.82   20.62
   8   2  21  194.74   19.45
 -10  -2 -21    3.95    9.37
  10  -2  21    2.92    6.79
 -10   2 -21    5.95    4.68
  10   2  21   -4.38    5.07
  12   2  21  150.87   19.23
 -12   2 -21  115.75   23.52
 -12   2 -21  196.57   35.62
  14  -2  21    1.70    7.33
  14   2  21    4.52    8.67
  15  -3 -21    5.85    9.15
  15   3 -21   22.58   12.54
  13  -3 -21   53.29   15.50
  13   3 -21   28.86   13.32
  11  -3 -21   14.34    8.72
  11  -3 -21   25.32    9.79
  11   3 -21   71.26   21.28
   9  -3 -21   84.25   11.90
   7  -3 -21   23.22    8.42
   7   3 -21   52.22   15.60
  -5  -3  21    4.55    5.80
   5  -3 -21   26.91    7.81
   5   3 -21   13.44    7.12
  -5   3  21   27.43    9.78
   3  -3 -21    9.05    5.69
  -3  -3  21   25.51   10.87
  -3   3  21   11.86    6.50
   3   3 -21   29.29    9.36
  -1  -3  21   56.80   13.86
   1   3 -21   53.88   10.82
  -1  -3 -21   39.54   10.90
   1  -3  21   74.46   14.53
   1   3  21   17.79    7.38
   3  -3  21   56.42   12.30
  -3   3 -21   65.29   13.98
   5  -3  21  130.67   15.09
  -5   3 -21  156.18   17.55
  -7  -3 -21   84.93   29.61
   7  -3  21   20.15    8.63
   7   3  21   61.87   13.69
  -7   3 -21   35.49   11.27
   9  -3  21   58.06   14.20
  -9   3 -21   46.20   15.53
  -9   3 -21   46.92   13.19
  11  -3  21   15.26   10.12
 -11   3 -21   12.63    6.92
  11   3  21   37.87   13.56
 -11   3 -21   22.77   13.84
  13  -3  21    8.28   10.27
 -13   3 -21    1.36    5.24
  13   3  21    4.29    9.23
  14  -4 -21   94.12   21.77
  14   4 -21   75.00   23.36
  12  -4 -21   10.66    6.47
  12   4 -21   16.43    9.68
  10  -4 -21  208.59   18.29
  10   4 -21  193.80   25.32
   8  -4 -21    0.03    5.37
   8   4 -21    3.92    6.72
   6  -4 -21  125.99   12.70
  -6  -4  21  118.18   23.70
   6   4 -21  101.81   23.24
   4  -4 -21    6.86    5.18
  -4  -4  21   10.07    8.37
   4   4 -21    1.03    3.99
  -4   4  21    8.94    5.88
   4   4 -21    9.09    5.73
  -2  -4  21  339.72   25.75
   2  -4 -21  383.99   23.47
  -2   4  21  354.46   22.24
   2   4 -21  352.54   22.80
   0  -4 -21    5.91    5.21
   0  -4  21   -1.73    3.99
   0   4  21    5.24    5.10
   0   4 -21    4.70    5.04
  -2  -4 -21  432.27   28.60
   2  -4  21  470.77   27.70
  -2   4 -21  463.46   27.64
   2   4  21  479.06   26.07
   4  -4  21   -1.17    5.05
  -4  -4 -21   13.29    6.46
  -4   4 -21   18.27    7.33
   4   4  21   -0.82    5.01
   6  -4  21  101.04   13.79
   6   4  21   95.20   13.42
  -6   4 -21  113.79   15.55
   8  -4  21    4.36    6.67
  -8  -4 -21    4.48    7.01
   8   4  21    6.47    7.30
  -8   4 -21   12.16    6.04
  10  -4  21  109.91   14.80
 -10   4 -21  106.00   20.67
  10   4  21  116.24   21.36
 -10   4 -21   98.69   21.68
  12  -4  21   -3.60    6.78
  12   4  21    0.70    7.91
 -12   4 -21    8.51    8.35
 -12   4 -21   -2.00    3.80
  13   5 -21   53.07   21.01
  11  -5 -21   57.47   12.92
  11  -5 -21   33.82   11.80
  11   5 -21   22.61   10.99
   9  -5 -21   13.10    7.81
   9   5 -21    8.22    9.74
   7  -5 -21   43.37    9.59
   7   5 -21   30.92   13.19
  -5  -5  21   41.57   12.44
   5  -5 -21   20.77    7.67
   5   5 -21   72.10   19.71
   5   5 -21   69.79   14.36
  -3  -5  21   25.37   10.55
   3   5 -21   12.67    7.14
  -3   5  21   48.79   10.83
   3   5 -21   14.35    9.53
   1  -5 -21   75.25   10.72
  -1   5  21   51.95   11.54
   1  -5  21   32.98   10.64
  -1   5 -21   40.47    9.81
  -3  -5 -21   43.08   12.50
   5  -5  21   40.03   11.55
  -5   5 -21   48.83   12.60
  -7  -5 -21   13.45    9.94
   7   5  21   29.25   10.49
   9  -5  21   48.77   12.63
  -9   5 -21   26.50    9.63
   9   5  21   72.49   16.60
  -9   5 -21   45.04   13.16
  11  -5  21   79.94   16.84
  11   5  21   18.26   11.25
 -11   5 -21   81.45   19.07
  13  -5  21   15.86   10.99
  13   5  21   32.78   15.35
  14  -6 -21    2.12    5.39
  14   6 -21    5.89    6.25
  12  -6 -21   74.90   18.35
  12   6 -21   83.20   25.16
  10  -6 -21   -2.91    4.55
  10   6 -21   14.50    8.89
   8  -6 -21   66.66   12.85
   8   6 -21   56.32   16.64
   6  -6 -21    4.17    5.32
  -6  -6  21    8.09    6.70
   6   6 -21    5.62    6.84
  -4  -6  21   56.67   15.06
   4  -6 -21   62.04   12.07
   4   6 -21   63.07   12.45
   4   6 -21   61.14   16.17
  -2  -6  21    5.43    5.86
   2  -6 -21   15.31    5.24
   2   6 -21    5.58    4.78
   2   6 -21    9.82    6.29
  -2   6  21   -1.27    3.08
   0  -6 -21  434.56   27.65
   0  -6  21  419.97   28.72
   0   6 -21  390.97   30.34
   0   6 -21  403.13   24.83
   0   6  21  444.20   23.72
  -2  -6 -21    8.98    5.39
   2  -6  21    0.81    4.08
  -2   6 -21   11.22    4.89
   2   6  21    5.05    5.23
  -4  -6 -21  141.79   18.89
   4  -6  21  135.14   15.55
   4   6  21  120.97   14.39
  -4   6 -21  119.66   14.66
  -6  -6 -21    2.09    3.65
   6  -6  21    3.56    5.95
  -6   6 -21   17.75    6.98
   6   6  21    2.82    6.80
   8  -6  21   56.03   13.46
   8   6  21   32.74   11.76
  -8   6 -21   64.32   15.69
  10  -6  21    7.88    7.43
 -10   6 -21    2.08    4.15
 -10   6 -21    5.72    7.02
  10   6  21   -1.66    6.10
  12  -6  21  245.78   24.96
  12   6  21  261.16   25.40
  13  -7 -21   18.85    9.96
  13   7 -21    6.60   10.51
  11   7 -21   29.57   16.42
   9  -7 -21    7.22    6.72
   9   7 -21    6.74    7.63
   7  -7 -21    8.72    6.47
   7   7 -21   12.09   10.31
  -5  -7  21   11.74    8.34
   5  -7 -21   18.70    7.45
   5   7 -21   10.00    9.26
  -3  -7  21   58.24   15.14
   3   7 -21   48.22   11.21
   3   7 -21   48.75   14.16
  -1  -7  21   44.96   12.98
   1   7 -21   56.42   12.31
   1   7 -21   42.13   14.02
  -1  -7 -21   12.01    7.45
   1  -7  21   21.16    9.39
  -1  -7 -21   20.34    8.86
  -1   7 -21   14.48    7.72
   1   7  21   18.91    6.77
  -1   7 -21   23.01   10.11
  -3  -7 -21   80.72   17.58
   3  -7  21   22.83    9.10
  -3   7 -21   35.35   10.03
   5  -7  21   72.88   14.27
  -5  -7 -21   41.61   16.24
  -5   7 -21   84.42   15.67
   7  -7  21   36.77   10.78
   7   7  21   62.87   14.04
  -7   7 -21   49.42   11.98
   9  -7  21   62.54   14.19
   9   7  21   20.38   10.88
  11   7  21   63.87   16.58
  12  -8 -21    9.07    5.48
  12   8 -21    5.29    5.87
  10  -8 -21  162.86   16.24
  10   8 -21  144.99   30.43
   8  -8 -21    6.85    5.99
   8   8 -21    7.22    6.85
   6  -8 -21   86.04   12.07
   6   8 -21   69.21   19.93
   6   8 -21   97.49   13.43
   4  -8 -21   11.77    5.62
  -4  -8  21    1.78    5.76
   4   8 -21    3.46    4.65
   2  -8 -21  176.62   16.49
   2  -8 -21  147.16   19.35
  -2  -8  21  153.15   18.85
  -2   8  21  147.76   12.03
   2   8 -21  171.91   16.20
   2   8 -21  174.71   22.13
   0  -8 -21   11.08    6.56
   0  -8 -21    2.00    5.57
   0  -8  21   -2.39    4.45
   0   8 -21    9.07    6.30
   0   8  21    3.30    4.09
   0   8 -21   12.04    6.92
  -2  -8 -21  215.81   24.72
   2  -8  21  195.69   19.48
  -2  -8 -21  213.85   21.81
  -2   8 -21  212.31   18.31
  -2   8 -21  231.29   22.83
   2   8  21  214.08   17.33
  -4  -8 -21   16.05    9.91
   4  -8  21    3.56    5.78
  -4   8 -21    7.80    4.51
  -4   8 -21   15.84    6.55
   4   8  21    1.72    5.84
   6  -8  21  112.24   14.25
  -6   8 -21   94.70   13.36
  -6   8 -21   98.02   13.56
   6   8  21   94.48   17.22
   8  -8  21    9.89    8.07
  -8   8 -21   -3.89    3.43
   8   8  21   -0.23    6.25
  -8   8 -21    7.59    4.35
  10  -8  21   94.81   18.72
  10   8  21   96.42   19.99
  12  -8  21    0.08    7.31
  12   8  21   -0.51    6.86
  11  -9 -21   53.44   13.45
   9   9 -21   55.17   20.15
   7   9 -21   26.61   12.38
  -5  -9  21   27.44   13.51
   5  -9 -21   13.27    8.32
   5  -9 -21   15.51    6.51
   5   9 -21   43.32   11.46
   5   9 -21   28.38   12.15
   3  -9 -21   52.89   12.23
   3  -9 -21   39.30   14.20
  -3  -9  21   19.66   10.17
   3   9 -21   13.85    9.01
   3   9 -21   12.55    7.04
   1  -9 -21   27.31    9.43
   1  -9 -21   30.74   11.42
  -1  -9  21   70.52   16.21
  -1   9  21   31.65    7.01
   1   9 -21   66.25   16.99
  -1  -9 -21   52.10   20.67
   1  -9  21   38.26   13.21
  -1  -9 -21   83.72   17.80
   1   9  21   72.44    9.76
  -1   9 -21   44.60   10.60
  -1   9 -21   31.43   11.77
   3  -9  21  139.83   17.60
  -3   9 -21  118.22   21.75
  -3   9 -21  121.02   14.64
   5  -9  21   25.44    9.43
  -5   9 -21   27.52    9.46
  -5   9 -21   56.82   12.03
   5   9  21   93.52   12.54
  -7   9 -21   70.33   14.86
   9  -9  21    9.31    8.01
   9   9  21   42.14   13.47
  11  -9  21   38.54   12.94
  11   9  21    6.05    9.68
  10 -10 -21    6.87    6.90
  10 -10 -21    1.06    6.09
  10  10 -21    8.08    6.36
   8 -10 -21  288.95   20.69
   8 -10 -21  246.37   24.70
   8  10 -21  251.57   32.44
   6 -10 -21    5.11    5.11
   6 -10 -21   20.39    6.59
   6  10 -21    8.29    7.77
   4 -10 -21   92.53   21.21
  -4 -10  21  106.21   24.52
   4 -10 -21   99.09   13.04
   4  10 -21  110.73   25.80
  -2 -10  21   12.05    6.53
   2 -10 -21    2.83    6.44
   2 -10 -21   15.32    7.08
   2  10 -21   13.51    5.19
   2  10 -21   15.14    8.25
   0 -10 -21  142.60   18.21
   0 -10  21  146.02   19.51
   0  10 -21  175.49   22.33
   0  10  21  153.42   11.86
   0  10 -21  184.12   16.58
   2 -10  21   10.95    7.20
  -2 -10 -21    2.67    7.37
  -2  10 -21    5.93    4.53
  -2  10 -21   12.57    6.06
   2  10  21   12.60    5.31
   4 -10  21  258.06   23.16
  -4  10 -21  250.89   19.72
   4  10  21  222.90   19.08
  -4  10 -21  275.25   25.54
   6 -10  21    7.15    6.00
  -6  10 -21    8.19    6.77
  -6  10 -21    0.32    3.87
   6  10  21    6.78    6.54
   8 -10  21  121.83   16.15
   8  10  21  158.61   20.73
  10 -10  21    1.27    6.33
  10  10  21    4.50    9.17
   9 -11 -21   18.49    9.31
   9 -11 -21   19.07   12.24
   9  11 -21    4.65    8.45
   7 -11 -21   11.49    9.22
   7 -11 -21   10.84    7.35
   7  11 -21   26.63   15.20
   5 -11 -21   44.24   11.03
   5  11 -21   22.24   10.35
  -3 -11  21   47.97   14.74
   3 -11 -21   20.00    8.47
   3  11 -21   26.72   12.62
   1 -11 -21   75.99   16.89
  -1 -11  21   34.10   11.44
   1  11 -21   31.38    9.37
   1  11 -21   45.62   15.14
   1 -11  21   27.21   11.63
  -1 -11 -21   13.08   11.20
  -1  11 -21   59.55   12.37
  -1  11 -21   46.18   13.77
   1  11  21   24.93    6.38
   3 -11  21   18.33    9.26
   3  11  21   26.70    7.97
  -3  11 -21    8.98    9.61
  -3  11 -21    1.74    4.40
   5 -11  21   75.10   16.52
   5  11  21   36.31   10.78
  -5  11 -21  103.84   21.03
   7 -11  21   22.63   10.15
  -7  11 -21   14.13    8.67
   7  11  21    9.30    7.50
   9 -11  21   35.58   12.54
   9  11  21   -2.47    6.70
   8 -12 -21    3.89    6.27
   8  12 -21    1.67    9.13
   6 -12 -21  157.93   16.49
   6  12 -21  154.67   33.82
  -4 -12  21   12.39    7.70
   4 -12 -21   12.94    7.13
   4  12 -21    8.33    7.29
   4  12 -21    9.32    8.38
  -2 -12  21  135.99   19.92
   2 -12 -21  155.66   18.82
   2  12 -21  156.50   16.84
   2  12 -21  176.69   24.86
   0 -12  21    8.86    6.22
   0  12 -21   15.30    9.21
   0  12 -21   11.49    5.97
   4 -12  21    8.16    6.32
   4  12  21    3.97    6.15
  -4  12 -21   11.55    7.05
   6 -12  21  121.20   16.63
   6  12  21  120.52   16.21
  -6  12 -21  122.32   17.25
   8 -12  21    3.12    5.25
   8  12  21    7.25    9.15
   7 -13 -21   33.96   12.32
   7  13 -21   18.05   14.73
   7  13 -21   27.41   13.49
   5 -13 -21   16.76    9.02
   5  13 -21   32.74   14.16
  -3 -13  21   30.53   13.83
   3 -13 -21   65.57   16.39
   3  13 -21   18.02   10.06
  -1 -13  21   60.25   17.01
   1  13 -21   48.91   16.81
   1 -13  21    7.84    7.66
  -1  13 -21   -1.07    3.63
  -1  13 -21   25.50   11.77
  -1  13 -21    2.64    4.80
   3 -13  21   41.74   12.95
  -3  13 -21   83.97   20.61
   5 -13  21   19.51    9.71
  -5  13 -21    1.84    6.10
   5  13  21   14.25    7.39
   4 -14 -21   62.68   25.49
   4  14 -21   60.60   17.70
   4  14 -21   94.27   27.34
  -2 -14  21    7.61    7.18
   2  14 -21   -0.78    4.26
   2  14 -21    9.97    7.58
   2  14 -21    3.19    9.62
   0 -14  21   97.39   21.92
   0  14 -21   91.75   23.34
   2 -14  21    3.47    6.89
  -2  14 -21    7.25    6.78
   4 -14  21  144.60   19.94
  -4  14 -21  127.62   24.72
  14   0 -22    9.88    7.80
  12   0 -22  153.04   22.30
  10   0 -22    4.52    3.90
   8   0 -22  217.22   18.86
   8   0 -22  197.90   23.20
  -6   0  22    5.36    5.47
   6   0 -22   -6.00    3.94
   4   0 -22  255.92   18.69
  -4   0  22  230.04   21.12
  -2   0  22    6.70    6.31
   2   0 -22    3.12    4.53
   0   0  22  349.54   23.48
   0   0 -22  336.39   22.75
  -2   0 -22   13.64    5.92
   2   0  22   -1.18    4.87
  -4   0 -22  954.92   46.20
   4   0  22  943.62   41.28
  -6   0 -22   17.71    8.19
   6   0  22   -2.12    5.15
   8   0  22  151.10   17.77
  -8   0 -22  161.46   20.36
  10   0  22    1.43    6.72
  12   0  22  111.12   21.98
 -12   0 -22  121.30   26.23
  14   0  22   -0.34    9.11
  15   1 -22   43.94   18.35
  13  -1 -22   58.72   17.92
  13   1 -22   31.89   13.53
  11   1 -22   94.95   22.60
   9  -1 -22  115.66   23.84
   9  -1 -22  114.16   13.86
   7  -1 -22   57.96   12.11
   5  -1 -22   87.26   11.21
  -5   1  22   78.57   16.52
   3  -1 -22   35.74    9.31
  -3   1  22   42.43   11.91
  -1  -1  22   91.38   13.24
   1   1 -22   91.95   11.97
  -1  -1 -22   44.17   10.31
   1   1  22   45.43   11.72
  -3  -1 -22  125.46   15.88
   3   1  22  102.93   13.13
  -5  -1 -22   42.26   13.78
   5   1  22   28.17    9.75
   7  -1  22   15.01    8.74
  -7  -1 -22   73.51   17.24
  -7   1 -22   29.54   14.42
   7   1  22   43.50   12.13
   9  -1  22   85.12   17.03
  -9   1 -22   96.93   21.42
 -11  -1 -22   69.64   22.48
  11   1  22   59.60   14.77
  13  -1  22   42.71   14.12
 -13   1 -22   34.38   14.43
  14  -2 -22   94.52   23.28
  14   2 -22   91.65   23.84
  12  -2 -22    5.15    4.42
  12   2 -22    7.19    5.71
  10  -2 -22  106.17   20.94
  10  -2 -22  140.43   15.49
  10   2 -22  153.40   21.85
   8  -2 -22    3.50    5.89
   8   2 -22   -0.25    6.09
   8   2 -22    9.35    7.44
   6  -2 -22  277.15   19.54
  -6  -2  22  248.73   24.23
   4  -2 -22    1.18    4.74
  -4  -2  22    4.08    5.83
  -4   2  22   12.85    5.87
  -2  -2  22   86.51   17.45
   2  -2 -22   59.37   11.68
   2   2 -22   88.15   11.50
  -2   2  22   81.88   15.08
   0  -2  22    0.33    4.76
   0  -2 -22    8.85    5.16
   0   2  22    0.74    4.29
   0   2 -22   14.47    5.44
   2  -2  22  316.46   22.41
  -2  -2 -22  212.25   22.90
   2   2  22  296.82   20.76
  -2   2 -22  315.31   22.95
   4  -2  22   -3.94    4.69
   4   2  22    0.22    5.72
  -4   2 -22    9.74    7.01
  -6  -2 -22  297.92   27.24
   6  -2  22  319.78   23.77
  -6   2 -22  333.01   26.88
   6   2  22  303.62   23.33
   8  -2  22    4.69    6.41
  -8  -2 -22    3.43    8.37
  -8   2 -22   13.00    9.02
  -8   2 -22   12.97    7.18
   8   2  22   -1.00    5.81
 -10  -2 -22   48.60   21.17
  10  -2  22   73.00   15.94
 -10   2 -22   76.29   19.81
  10   2  22   59.79   14.46
  12  -2  22    2.73    7.15
 -12   2 -22    5.61    8.68
  12   2  22   -0.84    6.78
  13  -3 -22   40.25   15.31
  13   3 -22   39.11   15.04
  11  -3 -22  119.07   24.49
   9   3 -22  119.92   27.01
   7  -3 -22   84.27   11.15
   7   3 -22   25.45   12.10
  -5  -3  22   18.49    9.76
   5  -3 -22   11.57    6.37
   5   3 -22   33.29   12.24
  -5   3  22   15.16    6.75
   3  -3 -22    7.67    6.50
  -3  -3  22   11.69    8.00
  -3   3  22    8.21    6.41
   3   3 -22    3.75    5.33
   1  -3 -22   45.67   11.84
  -1  -3  22   84.37   16.70
  -1   3  22   31.01    9.88
   1  -3  22   39.83   11.24
  -1  -3 -22   86.47   15.61
   1   3  22   89.38   15.16
  -1   3 -22   39.33   10.29
   3  -3  22  140.24   15.52
  -3   3 -22  139.32   16.03
  -5  -3 -22  149.12   19.68
  -5   3 -22   82.44   17.39
   5   3  22  124.12   14.76
   7  -3  22   63.37   14.19
  -7  -3 -22   37.56   13.93
  -7   3 -22   65.00   15.94
   9  -3  22    9.81    8.20
  -9   3 -22   26.31   10.58
   9   3  22   68.25   16.24
  -9   3 -22   16.98    8.73
  11  -3  22   55.98   14.33
 -11   3 -22   33.66   12.58
  11   3  22   10.59   10.13
  13  -3  22    3.80    8.55
 -13   3 -22   -0.22    5.20
 -13   3 -22    9.98   13.68
  13   3  22   33.55   11.47
  14  -4 -22   11.54    7.15
  14   4 -22    9.18    8.15
  12  -4 -22  149.49   28.05
  12   4 -22  168.39   33.93
  10  -4 -22   -3.84    4.35
  10   4 -22   13.73    8.10
   8  -4 -22  279.19   20.34
   8   4 -22  249.87   27.96
   6  -4 -22    4.03    5.34
  -6  -4  22    8.32    7.91
   6   4 -22    3.80    4.67
  -4  -4  22  131.72   24.20
   4  -4 -22  143.34   14.58
   4   4 -22  122.69   18.20
   4   4 -22  118.13   13.90
  -4   4  22  141.03   15.04
  -2  -4  22   10.49    8.03
   2   4 -22    4.27    5.48
  -2   4  22    9.02    5.88
   0  -4 -22    8.42    7.96
   0  -4  22    4.83    6.90
   0   4 -22    3.60    5.66
   0   4  22    3.01    5.38
  -2  -4 -22    7.88    5.62
   2  -4  22    0.84    4.37
  -2   4 -22   14.20    6.56
   2   4  22    1.59    4.72
  -4  -4 -22  152.14   33.30
   4  -4  22  210.17   18.83
   4   4  22  183.50   17.49
  -4   4 -22  211.95   20.18
   6  -4  22    2.12    6.16
  -6   4 -22    9.95    5.35
   6   4  22    7.77    7.56
   8  -4  22  122.02   15.83
   8   4  22  132.71   16.67
  -8   4 -22  147.25   19.32
  10  -4  22   -4.40    5.31
 -10   4 -22   12.71    8.32
  10   4  22   -4.50    4.96
 -10   4 -22    6.33    7.03
  12  -4  22  112.51   22.23
 -12   4 -22  135.29   29.53
  12   4  22  112.38   24.07
  13  -5 -22   29.39   12.00
  13   5 -22   45.43   19.21
  11  -5 -22   17.61    9.69
  11   5 -22   38.32   15.17
   9  -5 -22   39.21   10.25
   9   5 -22    3.44    6.56
   7  -5 -22   30.37    9.23
   7   5 -22   54.14   16.93
   7   5 -22   56.14   15.66
   5  -5 -22    9.14    6.28
  -5  -5  22    7.90    6.25
   5   5 -22    6.22    6.20
  -3  -5  22   12.89    7.81
   3  -5 -22    1.70    4.57
   3   5 -22   28.85    8.92
  -3   5  22    7.52    5.19
   3   5 -22   25.14   12.23
  -1  -5  22   41.10   12.40
   1   5 -22   50.83   10.94
  -1  -5 -22   29.88    9.89
   1  -5  22   30.62    9.58
  -1   5 -22   45.79   11.42
   1   5  22   10.32    6.58
  -3  -5 -22   64.09   15.42
   3  -5  22   17.10    8.16
  -3   5 -22   34.74   10.46
   3   5  22   59.06   12.40
  -5  -5 -22   30.29   13.19
   5   5  22   38.59   10.95
   7  -5  22   30.03   10.37
  -7   5 -22   28.97   11.28
   7   5  22   84.09   16.60
   9  -5  22  108.26   14.81
  -9   5 -22   83.83   18.34
  -9   5 -22  115.21   21.81
  11  -5  22   28.12   11.00
  11   5  22   85.56   19.36
 -11   5 -22   21.64   11.59
  13  -5  22   10.88   10.61
 -13   5 -22   -0.76    4.58
  13   5  22    5.73   10.75
  12  -6 -22    4.82    4.13
  12   6 -22    8.43    6.45
  10  -6 -22   75.52   13.99
  10   6 -22   36.25   13.97
   8  -6 -22    6.26    6.08
   8   6 -22    4.01    4.57
   6  -6 -22  276.46   19.93
  -6  -6  22  255.79   27.23
   6   6 -22  292.41   22.03
   6   6 -22  273.72   29.34
  -4  -6  22    7.53    6.41
   4  -6 -22    6.94    4.83
   4   6 -22   10.80    9.23
  -4   6  22    7.48    3.63
   2  -6 -22   51.85   12.18
  -2  -6  22   27.48   11.38
   2   6 -22   40.40   13.78
   2   6 -22   34.88    9.81
  -2   6  22   32.06    9.13
   0  -6  22    5.94    5.67
   0  -6 -22   15.87    6.44
   0   6  22    2.83    5.24
   0   6 -22    6.20    4.40
   2  -6  22   15.99    8.37
  -2  -6 -22    8.91    8.68
   2   6  22   18.68    7.53
  -2   6 -22   24.93    9.36
   4  -6  22    3.70    6.07
  -4  -6 -22    8.12    7.32
   4   6  22    5.64    6.38
  -4   6 -22    7.94    5.14
   6  -6  22  102.28   17.48
   6   6  22   97.75   13.79
  -6   6 -22  106.77   19.86
   8  -6  22    7.03    7.37
  -8   6 -22    9.64    6.43
   8   6  22    0.35    6.06
  10  -6  22  109.75   19.51
  10   6  22  138.53   25.46
  12  -6  22   -3.53    6.33
 -12   6 -22    2.30    4.73
  12   6  22    7.08    9.04
  13  -7 -22   10.81    8.55
  13   7 -22   14.84   10.99
  11  -7 -22   11.00    9.36
  11   7 -22   19.33   13.06
   9  -7 -22    3.21    7.03
   9   7 -22   12.34   12.34
   7  -7 -22   17.98    7.50
   7   7 -22    6.86    9.52
   5  -7 -22    5.70    6.05
  -5  -7  22    2.77    7.97
   5   7 -22   -0.83    4.96
   5   7 -22    6.27    8.36
  -3  -7  22    4.54    5.13
   3  -7 -22    8.93    6.46
   3   7 -22   12.89    8.57
   3   7 -22   15.42    8.39
  -3   7  22    9.68    5.47
   1  -7 -22   27.33    9.02
  -1  -7  22   60.82   15.79
   1   7 -22   68.79   13.90
  -1   7  22   26.09    8.14
   1   7 -22   35.27   12.04
  -1  -7 -22   10.07    9.26
   1  -7  22   13.98    8.59
  -1  -7 -22   11.76   10.02
  -1   7 -22    9.05    7.09
   1   7  22   13.14    6.48
  -1   7 -22    6.01    5.69
  -3  -7 -22   20.70    9.27
   3  -7  22   36.28   11.35
  -3   7 -22   55.70   12.96
   3   7  22   25.01    8.94
   5  -7  22   15.48    8.90
   5   7  22   73.02   15.99
  -5   7 -22   32.93   10.58
   7  -7  22   63.63   14.47
  -7   7 -22   90.73   18.56
   9  -7  22   20.84   10.13
   9   7  22   66.47   16.89
  11  -7  22   30.62   11.53
  11   7  22    8.92   11.13
 -11   7 -22   -0.76    3.50
  12  -8 -22   85.79   18.56
  12   8 -22   77.56   23.32
  10  -8 -22    2.13    6.04
  10   8 -22    5.39    5.13
   8  -8 -22  108.59   13.15
   8   8 -22  120.45   25.46
   6  -8 -22    5.74    5.10
   6   8 -22   16.12    9.75
  -4  -8  22   52.12   16.12
   4  -8 -22   62.63   12.64
   4   8 -22   49.23   15.18
  -2  -8  22   12.46    7.60
   2  -8 -22    9.19    4.23
   2  -8 -22    8.93    5.79
  -2   8  22   11.41    4.43
   2   8 -22    4.85    5.26
   2   8 -22    4.34    5.30
   0  -8  22    7.50    8.40
   0  -8 -22    8.48    7.84
   0  -8 -22   10.35    9.44
   0   8 -22    4.11    7.83
   0   8  22    6.59    6.17
   0   8 -22    3.53    6.48
  -2  -8 -22   14.10    7.84
   2  -8  22   13.25    5.90
   2   8  22    5.02    5.89
  -2   8 -22   13.90    6.90
  -2   8 -22    8.49    5.34
   4  -8  22  199.13   19.67
  -4   8 -22  170.05   19.44
  -4   8 -22  166.78   17.27
   4   8  22  193.17   17.72
   6  -8  22   15.42    6.75
  -6   8 -22   19.08    7.74
   6   8  22    2.51    6.31
  -6   8 -22   12.90    5.86
   8  -8  22  111.21   19.54
   8   8  22  115.86   20.33
  -8   8 -22   92.19   13.05
  10  -8  22    0.10    5.85
 -10   8 -22    1.04    3.73
 -10   8 -22   -0.30    3.09
  10   8  22   -0.18    7.81
  11   9 -22   58.47   22.32
   9  -9 -22   99.47   13.38
   9   9 -22   68.49   23.57
   7  -9 -22   35.36    9.86
   7   9 -22   51.64   18.04
   5  -9 -22   35.42   10.62
  -5  -9  22   18.97    9.82
   5   9 -22    4.11    7.81
  -3  -9  22   22.82   11.42
   3  -9 -22   15.41    7.14
   3   9 -22   10.84    9.31
   1  -9 -22   56.59   13.70
  -1  -9  22   26.79    9.99
   1   9 -22   31.09    9.25
   1   9 -22   18.73    8.88
   1  -9  22   44.35   13.28
  -1  -9 -22   19.74    8.84
   1   9  22   34.36    8.38
  -1   9 -22   56.56   15.09
   3  -9  22   38.49   12.76
  -3   9 -22   48.78   12.08
  -3   9 -22   48.30   13.76
   5  -9  22   73.20   14.82
  -5   9 -22   67.76   15.74
  -5   9 -22   78.39   15.47
   7  -9  22   35.33   10.35
  -7   9 -22   20.66    7.97
   7   9  22   51.95   13.03
   9  -9  22   40.66   12.97
   9   9  22    1.65    7.28
  10 -10 -22   96.91   17.13
  10 -10 -22   64.93   25.04
  10  10 -22   69.97   21.36
   8 -10 -22    3.81    6.65
   8 -10 -22   11.43    6.59
   8  10 -22   10.70    7.83
   6 -10 -22  147.05   15.82
   6 -10 -22  132.91   33.51
   6  10 -22  112.53   25.49
   4 -10 -22   13.65    5.79
  -4 -10  22    5.37    6.02
   4  10 -22    8.86    6.09
   4  10 -22   10.31    7.74
  -2 -10  22   68.45   18.16
   2 -10 -22  114.14   14.87
   2  10 -22   79.24   18.54
   2  10 -22   92.63   23.87
   0 -10  22    6.81    6.50
   0 -10 -22   13.45    8.33
   0  10  22   12.96    4.11
   0  10 -22    7.53    6.53
   0  10 -22   14.52    5.80
   2 -10  22  220.52   21.86
  -2  10 -22  223.50   19.30
   2  10  22  211.83   16.54
  -2  10 -22  244.54   25.55
   4 -10  22    4.58    6.22
  -4  10 -22   17.68    7.76
  -4  10 -22   19.41    8.53
   4  10  22    8.98    5.18
   6 -10  22  186.35   18.89
  -6  10 -22  166.31   19.54
   6  10  22  159.99   18.15
   8 -10  22    7.98    6.46
  -8  10 -22    3.14    4.90
   8  10  22    9.89    7.96
  10 -10  22   30.12   11.74
  10  10  22   31.84   13.56
   9 -11 -22    4.37    7.29
   9  11 -22    0.37    8.18
   7  11 -22   31.83   14.82
   5 -11 -22    3.79    6.92
   5  11 -22   13.47   11.23
  -3 -11  22   26.72   11.48
   3 -11 -22   45.59   12.76
   3  11 -22   20.87    9.87
  -1 -11  22   66.28   17.60
   1  11 -22   84.66   15.68
   1  11 -22   85.26   21.46
   1 -11  22   30.39   11.50
  -1  11 -22   17.52    8.00
   1  11  22   31.06    7.59
  -1  11 -22   18.80   10.70
   3 -11  22   23.62   10.74
  -3  11 -22   15.86   10.52
   3  11  22   15.25    6.19
  -3  11 -22   -0.49    4.78
   5 -11  22   19.42    9.71
   5  11  22   62.61   12.75
  -5  11 -22   31.58   12.51
   7 -11  22   28.73   10.83
  -7  11 -22    7.43    7.65
   7  11  22    3.19    7.67
   8 -12 -22   80.90   16.30
   8  12 -22  105.34   32.89
   6 -12 -22   17.65    7.87
   6  12 -22    5.58    5.45
  -4 -12  22   72.18   20.97
   4 -12 -22  100.68   19.51
   4  12 -22   66.86   22.18
   2 -12 -22   11.74    8.85
  -2 -12  22   14.41    8.59
   2  12 -22   17.57    8.24
   2  12 -22   17.61    8.94
   0 -12  22   81.22   19.33
   0  12 -22  102.96   22.75
   0  12 -22  110.16   13.72
   2 -12  22   13.49    8.63
  -2  12 -22   16.19    8.97
   4 -12  22  200.97   22.06
  -4  12 -22  240.10   25.52
   4  12  22  218.54   17.82
   6 -12  22   18.45    7.57
   6  12  22    2.17    6.82
  -6  12 -22   14.04    8.00
   7  13 -22   51.53   18.59
   7  13 -22   54.09   24.23
   5 -13 -22   59.90   15.87
  -3 -13  22   29.44   14.34
   3  13 -22   29.25   15.41
  -1 -13  22   33.49   13.37
   1  13 -22   44.27   16.99
   1 -13  22    7.99    9.46
  -1  13 -22   12.08    9.87
  -1  13 -22   -0.30    4.17
   3 -13  22   34.71   12.75
  -3  13 -22   44.91   16.32
   5 -13  22   10.61    9.90
  -5  13 -22   25.18   12.99
   4  14 -22    7.86    8.52
   4  14 -22   14.98   10.48
  -2 -14  22   71.26   21.24
   2  14 -22   44.58   15.21
   2  14 -22   64.39   22.10
   0 -14  22    9.25    7.84
   0  14 -22   18.13    9.95
   0  14 -22    4.33    5.75
   0  14 -22   -0.29    4.29
   2 -14  22   70.19   19.92
  -2  14 -22   92.32   22.49
  14   0 -23   99.65   27.00
  12   0 -23    7.43    6.22
  10   0 -23   20.87   10.45
   8   0 -23   -0.70    5.07
   8   0 -23    5.39    5.50
   6   0 -23  371.08   24.19
  -6   0  23  349.83   27.81
   4   0 -23    7.77    5.66
  -4   0  23    4.62    5.39
   2   0 -23  625.75   31.45
  -2   0  23  639.80   34.55
   0   0  23    1.67    5.31
   2   0  23    2.98    5.48
  -2   0 -23    5.98    7.48
  -4   0 -23   14.27    6.84
   4   0  23    0.15    6.54
   6   0  23   12.96    7.70
   8   0  23    2.43    6.87
  -8   0 -23   19.47   10.15
  10   0  23  234.95   22.91
 -10   0 -23  187.43   37.88
  12   0  23    7.18   11.88
  13  -1 -23   35.10   14.62
  13   1 -23   53.91   20.71
  11  -1 -23   57.08   17.14
  11   1 -23   26.34   12.81
   9  -1 -23   39.87   13.48
   9  -1 -23   33.47   11.77
   9   1 -23   54.18   15.66
   7   1 -23   79.63   11.61
   5  -1 -23   48.06   10.16
  -5   1  23   46.50   13.13
  -3  -1  23   30.08   10.87
  -3   1  23   60.65   13.85
   1  -1 -23   58.71   12.70
  -1   1  23   77.96   15.08
   1  -1  23   23.94    9.07
   1   1  23   33.65   10.34
  -1   1 -23   20.72    7.33
   3  -1  23   85.86   15.67
  -3   1 -23  105.49   19.54
   5  -1  23   27.45    9.79
  -5   1 -23   46.94   14.06
  -7  -1 -23   26.92   13.60
   7   1  23   26.54    9.08
  -9  -1 -23   55.01   16.06
   9  -1  23   31.71   11.44
   9   1  23   73.23   16.32
  -9   1 -23   22.09   13.75
  11  -1  23   74.34   17.41
  11   1  23   18.58    9.48
  13  -1  23    4.91   10.32
  13   1  23   13.68   10.84
  14  -2 -23   14.99    8.37
  14   2 -23    7.57    6.92
  12  -2 -23   75.78   20.00
  12   2 -23   47.97   15.29
  10  -2 -23    9.94    6.01
  10   2 -23    9.52    5.88
   8  -2 -23  173.67   16.99
   8   2 -23  163.59   21.75
   6  -2 -23    4.71    5.23
  -6  -2  23    6.66    6.15
  -4  -2  23  160.20   18.76
   4  -2 -23  171.49   16.39
  -4   2  23  150.32   16.67
  -2  -2  23    0.56    5.65
   2  -2 -23    2.55    4.49
  -2   2  23    4.04    4.66
   0  -2 -23  131.58   14.75
   0  -2  23  121.49   14.98
   0   2  23  105.46   13.46
   0   2 -23  127.29   14.29
   2  -2  23    6.45    5.97
  -2   2 -23   16.75    6.47
   2   2  23   -4.51    3.96
   4  -2  23   32.04    9.65
   4   2  23   47.99   13.13
  -4   2 -23   44.86   13.78
   6  -2  23   -2.30    4.83
  -6  -2 -23   12.00    6.73
   6   2  23   10.28    7.21
  -6   2 -23   20.72    8.59
   8  -2  23  147.14   17.64
  -8  -2 -23  149.93   21.16
  -8   2 -23  174.42   20.55
   8   2  23  146.82   17.58
  10  -2  23    6.39    8.53
 -10   2 -23    5.49    7.86
 -10   2 -23   -2.24    7.19
  10   2  23   -1.45    6.85
  12  -2  23   85.63   20.36
  12   2  23   96.42   23.16
  13  -3 -23   52.84   18.09
  13   3 -23   43.81   15.61
  11   3 -23   61.51   18.62
   9  -3 -23   93.49   13.32
   7  -3 -23   50.44   12.17
   7   3 -23  118.75   22.44
   5  -3 -23   50.00   10.80
  -5  -3  23   24.04   10.48
  -5   3  23   56.98   13.04
   3  -3 -23    5.08    5.83
  -3  -3  23   21.10    9.52
   3   3 -23   23.71    9.88
  -3   3  23    5.41    5.45
  -1  -3  23   22.42    9.51
   1   3 -23   32.13    9.66
  -1   3  23   49.34   12.35
   1  -3  23   49.50   13.10
  -1  -3 -23   27.29    8.84
   1   3  23   15.69    7.30
  -1   3 -23   52.40   11.71
   3  -3  23   28.99    9.99
  -3   3 -23   38.18   10.93
   3   3  23   67.45   13.36
   5  -3  23  105.12   14.53
  -5   3 -23  130.33   16.42
  -7  -3 -23   41.35   13.97
   7  -3  23   15.77    8.48
   7   3  23   66.44   15.03
  -7   3 -23   37.58   13.92
   9  -3  23   52.23   13.06
  -9   3 -23   25.12   10.15
   9   3  23   34.18   11.79
  11  -3  23   20.42   10.44
 -11   3 -23   14.87   10.34
  11   3  23   47.75   14.19
 -11   3 -23   19.78   12.77
  13  -3  23   40.36   13.03
  13   3  23   18.51   13.98
  14  -4 -23   80.11   20.09
  14   4 -23   89.52   27.52
  12  -4 -23    9.80    7.08
  12   4 -23    7.33    6.82
  10   4 -23  149.48   30.34
   8  -4 -23   -3.60    4.43
   8   4 -23   11.36    7.45
  -6  -4  23  389.76   32.78
   6  -4 -23  388.51   23.96
   6   4 -23  412.43   34.74
  -4  -4  23    0.43    3.72
   4  -4 -23    4.50    5.19
   4   4 -23    7.75    5.33
  -4   4  23    2.58    3.99
   2  -4 -23  289.06   21.12
  -2  -4  23  252.51   23.60
   2   4 -23  272.10   21.19
  -2   4  23  271.50   20.72
   0  -4 -23   21.32    7.29
   0  -4  23   11.46    6.85
   0   4  23    0.79    4.57
   0   4 -23    8.40    4.93
  -2  -4 -23   86.03   16.73
   2  -4  23   90.51   13.09
   2   4  23   94.51   12.37
  -2   4 -23  102.56   13.76
   4  -4  23    1.50    6.10
  -4   4 -23   15.48    7.57
   4   4  23    0.74    5.89
   6  -4  23  154.37   17.04
  -6  -4 -23  139.25   20.34
   6   4  23  145.08   16.86
  -6   4 -23  168.86   19.76
   8  -4  23    1.60    6.20
   8   4  23    8.23    8.30
  -8   4 -23   10.46    7.51
  10  -4  23   67.39   16.12
 -10   4 -23   36.09   12.22
  10   4  23   51.73   15.10
  12  -4  23    0.04    6.89
 -12   4 -23   -0.13    4.79
  12   4  23    3.87    8.71
  13  -5 -23    6.95    9.18
  13   5 -23   17.64   13.32
  11  -5 -23   23.29    9.43
  11   5 -23   15.10   10.61
   9  -5 -23   28.70    9.63
   9   5 -23   65.01   18.58
   7  -5 -23   99.63   12.45
   7   5 -23   30.38   12.90
  -5  -5  23   27.70   13.30
   5  -5 -23   23.54    8.36
   5   5 -23   52.20   17.53
   5   5 -23   56.24   15.33
  -3  -5  23   10.93    8.82
   3  -5 -23   32.43    9.66
  -3   5  23   25.86    8.60
   3   5 -23    7.39    6.78
   1  -5 -23   36.86    9.90
  -1  -5  23   89.43   17.97
  -1   5  23   37.83   10.02
  -1  -5 -23    6.29    6.36
   1  -5  23   -2.05    4.40
   1   5  23    1.40    5.51
  -1   5 -23    2.16    6.00
   3  -5  23   45.57   12.57
  -3  -5 -23   22.97    9.55
   3   5  23   12.91    7.58
  -3   5 -23   35.91   10.67
  -5  -5 -23   59.99   23.45
   5  -5  23   18.96    8.45
  -5   5 -23   30.58   10.08
   5   5  23   44.15   11.92
   7  -5  23   39.05   11.54
  -7   5 -23   37.85   13.59
   9  -5  23   37.31   11.72
  -9   5 -23   24.76   10.10
  -9   5 -23   20.69   11.18
   9   5  23   69.86   15.79
  11  -5  23   59.32   15.75
  11   5  23   12.99    8.29
 -11   5 -23    1.70    8.28
 -11   5 -23   -0.53    4.08
  12  -6 -23  125.95   25.87
  12   6 -23   92.44   23.77
  10   6 -23    5.55    5.27
   8  -6 -23  238.31   20.04
   8   6 -23  225.87   28.27
   6  -6 -23    2.85    5.78
  -6  -6  23    8.50    6.49
   6   6 -23    8.12    5.76
  -4  -6  23  215.99   23.86
   4  -6 -23  233.04   18.70
   4   6 -23  243.11   27.25
  -4   6  23  234.88   17.64
  -2  -6  23    9.66    6.42
   2  -6 -23   17.09    6.31
   2   6 -23    5.56    6.24
   2   6 -23    4.75    5.33
  -2   6  23    9.05    5.21
   0  -6 -23  102.13   14.38
   0  -6  23   90.71   17.14
   0   6  23   97.85   12.84
   0   6 -23  110.44   13.38
  -2  -6 -23   18.45    8.80
   2  -6  23    0.72    5.29
   2   6  23   10.07    6.00
  -2   6 -23    7.49    4.72
   4  -6  23   96.39   18.13
   4   6  23   95.76   13.47
  -4   6 -23  109.31   20.49
   6  -6  23    7.43    7.32
  -6   6 -23    6.05    6.91
   6   6  23    1.53    6.38
   8  -6  23  130.88   16.65
   8   6  23  142.33   16.68
  -8   6 -23  133.74   23.48
  10  -6  23    3.90    7.09
  10   6  23    5.47    9.16
 -10   6 -23   -1.39    6.10
 -10   6 -23   -2.65    3.45
  12  -6  23    5.89    9.24
  12   6  23   -7.30    7.30
 -12   6 -23   -1.08    4.34
  11   7 -23    8.39    9.16
   9  -7 -23   28.83    9.59
   9   7 -23    9.88   12.15
   7   7 -23   40.08   15.72
  -5  -7  23    9.44    6.94
   5  -7 -23   25.39    8.66
   5   7 -23    9.61    6.87
   5   7 -23    7.78    9.10
  -3  -7  23    8.96    9.40
   3  -7 -23   -2.01    5.31
   3   7 -23   15.83    9.42
  -3   7  23    5.73    4.22
  -1  -7  23    9.73    7.60
   1  -7 -23   25.08    9.86
  -1   7  23   23.01    7.91
   1   7 -23    5.35    6.68
   1   7 -23    1.68    5.67
  -1  -7 -23    7.22    8.55
  -1  -7 -23   -2.04    5.29
   1  -7  23   10.09    8.18
  -1   7 -23   18.21    8.23
  -1   7 -23    8.40    8.32
   1   7  23    4.98    5.78
  -3  -7 -23   19.62   14.77
   3  -7  23    3.79    6.57
   3   7  23   22.47    8.07
  -3   7 -23   14.96    7.30
   5  -7  23   34.84   11.21
   5   7  23    9.48    7.49
  -5   7 -23   55.20   14.55
   7  -7  23   12.62    8.12
   7   7  23   31.60   11.12
  -7   7 -23    5.89    7.94
   9  -7  23   48.26   13.87
   9   7  23    3.65    8.07
  -9   7 -23   -0.67    5.60
  11  -7  23   15.24    9.77
  11   7  23   18.77   12.35
  12  -8 -23    9.04    6.63
  12   8 -23   14.65   11.04
  10  -8 -23   96.63   24.99
  10   8 -23   83.95   22.78
   8  -8 -23    4.03    6.12
   8   8 -23   12.76    8.11
   6  -8 -23  270.90   20.96
   6   8 -23  280.78   31.62
  -4  -8  23    7.59    5.74
   4  -8 -23   20.49    7.00
   4   8 -23   12.26    7.01
   4   8 -23    3.26    4.32
   2  -8 -23  156.54   16.80
  -2  -8  23  118.82   23.11
   2  -8 -23  164.37   22.25
   2   8 -23  184.58   23.14
  -2   8  23  164.92   13.61
   0  -8 -23   14.37    7.68
   0  -8  23   12.16    7.00
   0   8 -23    1.17    5.04
   0   8  23   12.95    5.28
   0   8 -23    6.92    6.07
  -2  -8 -23   55.42   19.20
   2  -8  23   21.52    9.03
  -2   8 -23    7.36    7.75
   2   8  23   29.17    8.90
  -2   8 -23   29.77   10.71
   4  -8  23    9.76    7.10
  -4   8 -23   19.67    8.18
  -4   8 -23   10.70    5.15
   4   8  23   -0.22    5.73
   6  -8  23   60.77   14.00
  -6   8 -23   55.41   14.49
   6   8  23   65.40   14.12
  -6   8 -23   40.19   11.89
   8  -8  23   -0.91    5.80
   8   8  23    3.95    7.36
  -8   8 -23   -3.00    4.52
  -8   8 -23    9.38    5.34
  10  -8  23   27.17   10.48
  10   8  23   30.02   11.95
  11   9 -23   33.75   18.04
   9  -9 -23   25.37    9.80
   9   9 -23   49.62   17.41
   7  -9 -23   95.61   16.64
   7   9 -23   43.20   17.56
  -5  -9  23   39.90   16.49
   5  -9 -23   29.08    8.74
   5   9 -23   25.32   12.60
  -3  -9  23   13.17    7.98
   3  -9 -23   20.23    8.96
   3   9 -23    8.10    9.06
   3   9 -23    7.35    7.59
  -1  -9  23   56.81   15.43
   1   9 -23   41.55   14.37
   1   9 -23   66.72   13.84
   1  -9  23   20.43    9.46
  -1   9 -23   30.41   11.71
  -1   9 -23   25.97    8.82
   1   9  23   36.08    8.87
  -3   9 -23   52.22   13.39
  -3   9 -23   50.35   14.54
   5  -9  23   39.97   10.65
   5   9  23   81.82   15.39
  -5   9 -23   37.80   12.52
  -5   9 -23   36.77   10.89
   7  -9  23   49.37   12.33
  -7   9 -23   56.69   14.95
   7   9  23   11.98    7.81
   9  -9  23    6.60    8.77
  -9   9 -23   -1.19    3.21
   9   9  23   37.75   13.95
  10  10 -23   10.40    8.69
   8 -10 -23  109.35   18.20
   8  10 -23   68.54   20.09
   6 -10 -23    8.18    5.95
   6  10 -23   12.18    7.27
   4 -10 -23  148.88   16.88
  -4 -10  23  104.59   23.71
   4  10 -23  170.09   34.01
   2 -10 -23   18.49    7.76
  -2 -10  23   14.15    8.33
   2  10 -23   12.63    8.57
   0 -10  23   83.79   19.12
   0  10 -23   94.06   16.61
   0  10  23   79.51    9.71
   0  10 -23   81.64   20.24
   2 -10  23   13.02    6.01
  -2  10 -23   15.67    7.37
  -2  10 -23   18.76    8.87
   2  10  23   10.29    5.22
   4 -10  23    8.27    8.81
  -4  10 -23   22.83   11.21
  -4  10 -23    8.79    8.04
   4  10  23   23.00    8.99
  -6  10 -23    7.70    5.10
  -6  10 -23    0.50    4.19
   6  10  23   10.71    8.17
   8 -10  23   54.98   14.19
   8  10  23   47.28   13.73
   9  11 -23    1.84    7.18
   7 -11 -23   23.97    9.82
   7  11 -23   65.58   23.20
   5 -11 -23   36.97   10.97
   5  11 -23    8.44   12.28
   3 -11 -23   20.57    9.32
  -3 -11  23   41.00   15.15
   3  11 -23   63.37   21.51
   3  11 -23   52.63   13.78
  -1 -11  23   21.18   10.29
   1  11 -23   36.60   13.30
   1  11 -23   21.21   10.64
   1 -11  23    8.48    8.42
  -1  11 -23    2.95    8.30
   1  11  23    2.84    3.87
  -1  11 -23   25.53   10.41
   3 -11  23   33.46   12.07
  -3  11 -23   18.87    9.62
  -3  11 -23    1.48    5.44
   3  11  23   41.05    9.99
   5 -11  23   31.57   11.63
  -5  11 -23   15.98   11.35
   5  11  23   14.07    8.39
  -5  11 -23    0.02    4.24
   7 -11  23    4.47    8.21
   7  11  23   25.60   11.28
  -7  11 -23    8.76    8.32
   8  12 -23    9.79    8.54
   6 -12 -23   95.99   21.73
   6  12 -23   79.47   27.19
  -4 -12  23    8.28    8.86
   4  12 -23    6.75    5.70
  -2 -12  23  121.62   24.71
   2  12 -23  177.91   35.49
   0 -12  23   12.36    8.28
   0  12 -23   14.32    7.64
   0  12 -23    7.92    5.70
   2 -12  23    4.97    8.64
  -2  12 -23    0.20    5.00
   2  12  23   -0.56    2.46
  -2  12 -23   22.34   11.23
   4 -12  23   13.23    6.93
   4  12  23   14.49    7.18
  -4  12 -23   13.12    6.74
   6 -12  23   31.81   12.58
   6  12  23   24.60   10.85
  -6  12 -23   22.95   11.83
   5  13 -23   32.63   15.39
  -3 -13  23   25.48   13.01
   3  13 -23   25.88   13.26
   3  13 -23    9.59    9.69
  -1 -13  23   36.84   15.62
   1  13 -23   62.74   21.92
   1 -13  23    4.31    9.24
  -1  13 -23   35.25   14.96
  -1  13 -23   -0.78    4.53
   3 -13  23   38.89   14.85
  -3  13 -23    9.38    9.22
   2  14 -23   11.76    8.94
   2  14 -23   -1.24    6.05
   2  14 -23   -0.79    6.05
   0 -14  23   51.16   16.74
   0  14 -23   42.21   16.65
  14   0 -24   10.91    8.45
  12   0 -24   97.76   24.82
  10   0 -24    7.40    7.97
   8   0 -24  161.31   21.76
   6   0 -24    5.99    6.43
  -6   0  24   10.30    6.71
  -4   0  24  195.34   20.40
   4   0 -24  227.90   18.65
  -2   0  24    3.63    6.30
   0   0  24  208.52   19.30
   2   0  24   -1.34    4.95
  -2   0 -24    9.65    7.01
   4   0  24  157.43   16.93
   6   0  24   -6.12    3.84
  -6   0 -24   12.98    7.49
  10   0  24    4.42    7.51
  12   0  24  110.29   21.12
  13  -1 -24   21.78   12.04
  13   1 -24    5.89    9.74
  11  -1 -24   23.10    9.91
  11   1 -24   33.08   13.12
   9  -1 -24   38.00   13.07
   9   1 -24   20.19   11.17
   7  -1 -24   52.53   10.85
  -5  -1  24   63.42   15.66
   5   1 -24   52.98   12.03
   3  -1 -24   71.91   10.47
  -3  -1  24   92.45   18.14
  -3   1  24   53.03   14.01
   1  -1 -24  161.65   16.80
  -1   1  24  147.48   16.76
   1  -1  24   62.55   14.70
  -1   1 -24   73.53   15.88
   3  -1  24   37.39   11.10
  -3   1 -24   30.59   11.27
  -5  -1 -24   21.10   12.55
   5   1  24   39.10   11.27
  -7  -1 -24   44.65   21.02
   7   1  24   67.65   13.92
   9  -1  24   64.95   15.49
   9   1  24   26.30   10.73
  11  -1  24   26.64   10.95
  11   1  24   60.69   16.57
 -11   1 -24   16.01   14.73
  13  -1  24   23.43   12.65
  13   1  24   18.86   11.21
  14  -2 -24   64.42   21.42
  14   2 -24   46.94   19.61
  12  -2 -24   10.91    6.98
  12   2 -24   10.65    7.71
  10  -2 -24  106.12   25.14
  10   2 -24  128.95   25.45
   8  -2 -24   -2.23    5.24
   8   2 -24   10.22    6.48
   6  -2 -24  144.64   15.38
  -6  -2  24  141.72   19.31
  -4  -2  24   10.20    6.67
   4  -2 -24    0.01    5.02
  -4   2  24    9.38    5.79
  -2  -2  24  359.87   27.45
   2  -2 -24  415.21   25.78
  -2   2  24  382.79   26.17
   0  -2 -24   13.93    6.22
   0  -2  24    7.53    6.71
   0   2 -24    4.94    5.48
   0   2  24    9.40    5.96
   2  -2  24  141.08   15.78
   2   2  24  127.31   15.25
  -2   2 -24  136.83   15.68
   4  -2  24    0.15    5.64
  -4   2 -24    8.24    7.67
   4   2  24   -0.18    6.36
  -6  -2 -24  127.13   29.61
   6  -2  24  140.26   16.73
   6   2  24  123.60   16.07
   8  -2  24    4.92    6.97
   8   2  24    1.42    6.40
  -8   2 -24    8.11    7.74
  -8   2 -24    1.69    8.75
  10  -2  24  130.45   17.48
  10   2  24  113.35   21.42
  12  -2  24    3.28    9.32
 -12   2 -24   -0.46    7.36
  12   2  24   -2.56    8.13
  13  -3 -24   18.45    9.71
  13   3 -24   28.39   12.78
  11  -3 -24   35.47   14.31
  11   3 -24   21.11   11.63
   9   3 -24   65.84   21.33
   7  -3 -24  122.83   13.95
   5  -3 -24   14.80    7.57
  -5  -3  24   48.82   15.07
  -5   3  24   17.86    7.70
   3  -3 -24   41.28   10.89
  -3  -3  24   18.91   10.28
  -3   3  24   37.07   11.00
  -1  -3  24   85.32   16.96
   1  -3 -24   53.06   11.74
  -1   3  24   32.57   10.41
  -1  -3 -24   54.75   13.78
   1   3  24   45.49   11.78
   3  -3  24  103.59   18.17
  -3   3 -24  105.30   19.59
  -5  -3 -24   76.80   17.78
   5   3  24   97.81   13.84
   7  -3  24   37.84   12.22
   7   3  24    8.88    8.80
   9  -3  24   14.23    8.60
   9   3  24   50.97   13.13
  -9   3 -24   15.37    8.77
  -9   3 -24   17.96   11.99
  11  -3  24   40.37   13.82
  11   3  24   15.78   11.44
  12  -4 -24   85.91   22.20
  12   4 -24   65.64   19.64
  10   4 -24    7.50    6.33
   8  -4 -24  213.32   18.74
   8   4 -24  211.56   26.19
  -6  -4  24   13.94    7.48
   6  -4 -24    1.19    5.15
   6   4 -24   10.39    8.32
  -4  -4  24  180.81   21.25
   4  -4 -24  208.47   17.77
  -4   4  24  183.44   17.87
   4   4 -24  149.58   21.01
  -2  -4  24   -2.77    4.00
   2  -4 -24   15.92    5.66
  -2   4  24    1.87    5.00
   0  -4  24  506.96   32.34
   0  -4 -24  512.95   31.22
   0   4  24  500.30   28.53
   0   4 -24  459.34   28.38
   2  -4  24   -1.33    5.12
  -2  -4 -24   16.41    6.95
   2   4  24    3.55    5.29
  -2   4 -24   10.76    6.86
  -4  -4 -24  164.77   21.11
   4  -4  24  196.33   19.44
   4   4  24  180.66   17.48
  -4   4 -24  185.87   20.01
   6  -4  24    3.15    5.40
  -6   4 -24   16.11   10.71
   6   4  24    0.02    5.27
   8  -4  24   50.13   13.53
   8   4  24   66.11   16.39
  10  -4  24    1.74    6.25
  10   4  24    0.47    7.26
 -10   4 -24    2.40    4.60
  12  -4  24  183.15   24.18
  12   4  24  154.71   20.60
  13  -5 -24   58.51   18.04
  11  -5 -24   20.64   10.18
  11   5 -24   22.72   13.16
   9   5 -24   28.21   12.34
   7   5 -24  131.08   27.57
  -5  -5  24   27.08   12.25
   5   5 -24   36.59   12.73
   5   5 -24   42.01   14.46
  -3  -5  24   67.42   17.30
   3  -5 -24   33.41   10.01
   3   5 -24   90.94   21.39
  -3   5  24   26.18    8.94
   1  -5 -24   99.81   13.60
  -1  -5  24   54.64   15.13
  -1   5  24   98.87   13.09
   1  -5  24    5.04    7.53
  -1  -5 -24   22.39    9.72
  -1   5 -24    2.88    6.66
   1   5  24    6.91    7.26
  -3  -5 -24   33.22   12.81
   3  -5  24    7.79    6.68
   3   5  24   33.62    9.86
  -3   5 -24   14.28    7.07
   5  -5  24   31.54   10.67
  -5   5 -24   53.46   14.10
   7  -5  24    8.48    8.18
  -7   5 -24    5.18    8.96
   7   5  24   25.21   10.33
   9  -5  24   43.94   14.08
  -9   5 -24   36.55   12.86
   9   5  24   12.70    9.55
  -9   5 -24   31.54   17.24
  11  -5  24    7.32    9.41
  11   5  24   39.54   14.59
 -11   5 -24    1.16    5.18
  12  -6 -24    9.81    7.38
  12   6 -24   13.69    8.84
  10   6 -24   98.95   28.60
   8  -6 -24    1.91    5.30
   8   6 -24   13.52    9.11
  -6  -6  24  171.53   23.53
   6  -6 -24  168.46   16.93
   6   6 -24  188.33   24.69
  -4  -6  24    3.59    4.10
   4  -6 -24   17.54    6.01
  -4   6  24   14.49    5.60
   4   6 -24    6.43    6.24
   4   6 -24    2.57    5.65
  -2  -6  24  610.63   39.60
   2  -6 -24  692.53   35.89
  -2   6  24  634.94   32.05
   2   6 -24  664.67   43.70
   0  -6  24   13.35    7.84
   0  -6 -24   16.61    6.97
   0   6  24   11.40    6.05
   0   6 -24    5.95    6.13
   2  -6  24  176.03   19.01
  -2  -6 -24  182.00   21.02
   2   6  24  169.88   16.82
  -2   6 -24  190.23   18.84
   4  -6  24   15.65    6.68
  -4   6 -24    6.72    7.21
   4   6  24   -2.31    4.82
   6  -6  24   31.78   10.90
  -6   6 -24    5.90    8.30
   6   6  24   20.68   10.00
   8  -6  24   -0.58    5.34
  -8   6 -24   13.55    8.79
   8   6  24   -1.51    4.90
  10  -6  24  124.66   18.02
  10   6  24  142.24   27.75
  11   7 -24    6.54    8.74
   9   7 -24   29.31   14.85
   7  -7 -24   95.79   16.83
   7   7 -24   48.13   18.23
  -5  -7  24   32.95   13.65
   5   7 -24   45.88   14.89
   3  -7 -24   37.92   10.99
  -3  -7  24   28.17   11.52
  -3   7  24   42.24    9.92
   3   7 -24   16.10    9.99
   3   7 -24    4.32    7.55
   1  -7 -24   31.99    9.42
  -1  -7  24   52.93   14.43
   1   7 -24   46.80   14.26
  -1   7  24   34.24    9.28
   1  -7  24    7.45    6.75
  -1  -7 -24    1.11    7.75
  -1   7 -24    2.64    6.52
  -1   7 -24    2.19    7.18
   1   7  24    7.55    7.03
   3  -7  24    0.03    5.73
   3   7  24    4.92    6.18
  -3   7 -24   -0.03    7.12
   5  -7  24   11.95    8.14
  -5   7 -24   11.29    9.19
   5   7  24   27.36   10.78
   7  -7  24   12.85    8.99
  -7   7 -24    7.03    9.94
   7   7  24    4.37    6.92
   9  -7  24    8.59    8.77
   9   7  24   28.90   11.53
  -9   7 -24   -1.28    5.76
  11  -7  24   44.26   14.25
  11   7  24    1.03    8.32
  10   8 -24    6.71    8.69
   8  -8 -24  179.96   17.67
   8   8 -24  162.77   33.97
  -6  -8  24   20.27   10.36
   6  -8 -24    5.00    5.34
   6   8 -24   10.55    7.93
   4  -8 -24  142.81   15.73
  -4  -8  24  109.79   23.30
   4   8 -24  137.47   28.94
  -2  -8  24   12.51    7.91
   2  -8 -24   15.07    6.33
  -2   8  24   11.45    4.70
   2   8 -24    6.32    8.18
   2   8 -24    5.48    4.94
   0  -8 -24  301.41   26.19
   0  -8  24  228.12   24.18
   0   8  24  275.83   19.72
   0   8 -24  310.03   29.62
   2  -8  24   17.42    8.11
  -2   8 -24    6.91    6.78
   2   8  24   -0.68    3.73
  -2   8 -24    8.50    7.06
   4  -8  24  113.33   16.26
   4   8  24  142.19   16.59
  -4   8 -24  116.02   16.52
  -4   8 -24  130.82   16.63
   6  -8  24    4.02    5.43
  -6   8 -24    5.04    5.66
  -6   8 -24   13.57    6.99
   6   8  24    3.15    6.89
   8  -8  24   67.86   15.28
   8   8  24   68.32   17.42
  -8   8 -24   52.30   14.35
  10  -8  24   -4.08    6.62
  10   8  24    6.09    9.54
 -10   8 -24   -0.98    4.09
 -10   8 -24   -0.28    3.49
 -10   8 -24   -1.71    5.41
   9   9 -24   21.15   11.69
   7   9 -24   75.67   21.97
  -5  -9  24   26.29   13.48
   5  -9 -24   68.61   14.36
   5   9 -24   31.45   15.46
  -3  -9  24   13.31   10.21
   3  -9 -24    6.08    7.23
   3   9 -24   42.92   14.80
  -1  -9  24   40.88   13.75
   1  -9 -24   57.66   19.37
  -1   9  24   58.23   10.83
   1   9 -24   32.60   12.81
   1  -9  24   16.03   10.97
  -1   9 -24   53.55   16.58
  -1   9 -24   34.38   11.69
   3  -9  24   28.93    9.27
  -3   9 -24   21.67    9.34
  -3   9 -24   27.45   10.73
   3   9  24   61.61   12.18
   5  -9  24   77.74   16.33
  -5   9 -24   82.48   17.11
  -5   9 -24   61.05   15.86
   7  -9  24    7.06    7.33
  -7   9 -24    7.63    6.13
   7   9  24   26.67   11.33
  -7   9 -24   -1.15    4.62
   9  -9  24   12.96    9.96
  -9   9 -24   -0.15    4.45
   9   9  24    7.09   10.74
   8  10 -24    7.95    6.55
   6 -10 -24  118.46   15.98
   6  10 -24  125.11   29.52
   4 -10 -24    7.70    5.66
  -4 -10  24    9.62    8.01
   4  10 -24   21.25   10.56
  -2 -10  24  185.83   23.20
   2  10 -24  199.43   20.42
   2  10 -24  187.65   25.50
   0 -10  24   23.59    9.40
   0  10 -24   12.68    7.69
   0  10  24    9.63    4.32
   0  10 -24    7.02    8.79
   2 -10  24  104.37   20.34
   2  10  24   70.96   13.11
  -2  10 -24  109.20   18.71
  -2  10 -24   87.49   20.75
   4 -10  24    8.98    8.39
  -4  10 -24   -2.09    6.19
   4  10  24    5.97    6.15
  -4  10 -24    3.90    5.93
   6 -10  24   96.53   18.29
  -6  10 -24   73.74   18.18
   6  10  24   83.65   16.72
   8 -10  24    1.22    6.51
  -8  10 -24    0.71    5.18
   8  10  24    6.75    8.98
   7  11 -24   18.86   11.00
   5  11 -24   30.84   16.46
  -3 -11  24   16.35   11.93
   3  11 -24   25.59   14.23
  -1 -11  24   48.08   15.73
   1  11 -24   58.00   19.52
   1 -11  24    0.27    7.29
   1  11  24   -2.46    2.51
  -1  11 -24    1.94    9.20
  -1  11 -24   10.72    8.38
   3 -11  24   66.81   16.59
   3  11  24   32.64    9.58
  -3  11 -24   43.92   15.11
   5 -11  24    6.42    7.55
  -5  11 -24   17.40    9.81
   5  11  24   36.11   10.14
   7 -11  24    8.89    9.02
  -7  11 -24   -2.40    4.74
   7  11  24    4.80    9.00
   6  12 -24   23.86   13.64
  -4 -12  24   64.11   20.07
   4  12 -24   37.83   15.51
  -2 -12  24    8.89    8.41
   2  12 -24    2.31    7.55
   2  12 -24    8.79    6.95
   0 -12  24   62.12   17.02
   0  12 -24   50.83   13.52
   0  12 -24   89.75   22.70
   2 -12  24   10.04    8.32
  -2  12 -24    3.70    6.05
  -2  12 -24   17.30    9.11
   2  12  24    0.47    3.12
   4 -12  24   51.47   15.15
  -4  12 -24   53.14   16.96
   4  12  24   63.83   13.50
  -3 -13  24   49.48   16.54
   3  13 -24   40.22   15.44
  -1 -13  24   24.15   12.20
   1  13 -24   40.13   17.79
   1 -13  24   23.62   13.83
  -1  13 -24   48.45   17.62
   3 -13  24   16.67   10.13
  -3  13 -24   10.06    9.63
  12   0 -25    9.90    6.55
  10   0 -25  111.53   24.17
   6   0 -25  211.97   19.95
  -6   0  25  167.75   20.13
  -4   0  25   17.06    8.71
   4   0 -25   15.89    7.49
  -2   0  25  501.87   32.11
   0   0  25   10.26    7.69
   2   0  25  312.73   23.87
   4   0  25    1.84    6.07
  -4   0 -25   11.84    8.11
   6   0  25   85.15   17.06
   8   0  25    0.14    6.84
  -8   0 -25    7.71    6.56
  10   0  25    1.91    7.34
  12   0  25   -5.06    7.13
  13  -1 -25    1.85    8.53
  13   1 -25   10.15   11.57
  11  -1 -25   13.14    9.91
  11   1 -25    1.26    9.17
   9  -1 -25   16.60   10.15
   9   1 -25   15.06    8.74
  -5  -1  25   96.86   19.55
  -5   1  25   48.30   14.02
  -3  -1  25   40.85   13.68
  -1   1  25   71.24   15.83
   1  -1  25   30.41   10.70
   1   1  25   67.90   14.61
   3  -1  25   92.16   17.32
   5  -1  25   24.24   10.11
  -5   1 -25   36.83   12.73
   7  -1  25   49.70   14.02
  -7  -1 -25   12.51   11.52
   7   1  25   13.05    8.59
   9  -1  25   30.35   10.90
   9   1  25   52.72   14.17
  -9   1 -25   12.66   10.64
  11  -1  25   95.00   20.67
  11   1  25   23.38   10.69
  12  -2 -25   83.38   20.80
  12   2 -25   86.16   24.29
  10  -2 -25   12.28    8.19
  10   2 -25   22.21   13.01
   8   2 -25   91.96   23.51
  -6  -2  25   12.60    7.39
   6  -2 -25   -0.53    5.17
  -4  -2  25  134.16   24.52
   4  -2 -25  118.80   14.40
  -4   2  25  106.27   14.86
  -2  -2  25    0.38    5.69
  -2   2  25   11.28    7.03
   0  -2  25  167.00   18.56
   0  -2 -25  190.88   19.28
   0   2  25  183.57   18.06
   2  -2  25    6.15    6.16
   2   2  25    4.25    6.52
   4  -2  25  276.49   22.68
   4   2  25  274.03   22.30
   6  -2  25    0.31    6.06
   6   2  25   -0.58    5.67
  -6   2 -25    1.94    8.87
   8  -2  25   14.92    9.64
   8   2  25    2.97    7.14
  10  -2  25    0.75    7.63
 -10   2 -25    1.51    7.11
  10   2  25    1.51    7.87
  12  -2  25   36.19   12.31
  12   2  25   19.39   12.68
  13  -3 -25   13.80   12.75
  13   3 -25    4.30    8.22
  11  -3 -25   16.21    8.40
  11   3 -25   30.46   15.68
   9   3 -25   25.97   11.23
   7  -3 -25   19.25   10.19
   7   3 -25   91.00   25.11
   5  -3 -25   79.38   14.69
  -5  -3  25   34.92   13.00
  -5   3  25   52.13   14.57
  -3  -3  25   42.26   14.14
   3  -3 -25   26.20    8.70
  -3   3  25   11.53    6.35
   3   3 -25   24.57   11.51
   1  -3 -25  147.79   15.86
  -1   3  25  117.47   15.25
   1  -3  25   38.00   11.19
  -1  -3 -25   15.48    7.30
   1   3  25    8.46    6.81
   3   3  25  103.29   18.33
   5  -3  25   78.73   15.78
   7  -3  25    5.43    8.40
   7   3  25   11.62    9.16
  -7   3 -25    7.70   11.12
   9  -3  25   38.78   13.82
  11  -3  25    8.64    9.07
  11   3  25   45.02   13.48
 -11   3 -25    0.46    7.02
  12  -4 -25   17.23    9.12
  12   4 -25    9.82    7.88
  10   4 -25   78.11   21.39
   8   4 -25    9.46    6.91
  -6  -4  25  135.23   25.03
   6  -4 -25  158.96   16.73
   6   4 -25  128.46   24.49
  -4  -4  25    3.20    6.39
   4  -4 -25    2.67    4.90
   4   4 -25    0.78    5.16
   4   4 -25   10.18    7.01
  -4   4  25    9.82    5.20
   2  -4 -25  241.94   20.87
  -2   4  25  242.95   20.56
   0  -4 -25   27.84    8.25
   0  -4  25    3.70    6.75
   0   4  25    3.20    6.14
   2  -4  25   97.13   18.20
  -2  -4 -25  116.96   21.39
   2   4  25   91.13   16.56
   4  -4  25    1.69    6.55
   4   4  25    3.53    6.66
   6  -4  25   51.45   13.19
   6   4  25   52.96   13.63
   8  -4  25   -0.14    5.96
  -8   4 -25   14.19   10.51
   8   4  25    3.09    7.01
  10  -4  25   32.23   12.03
  10   4  25   41.60   13.23
 -10   4 -25   13.51   14.07
  11  -5 -25   22.16   12.94
  11   5 -25   18.58   12.11
   9   5 -25   53.98   17.34
   7  -5 -25   94.35   13.30
   7   5 -25   27.62   12.37
  -5  -5  25   76.93   19.80
   5   5 -25   78.08   19.97
  -3  -5  25   39.19   12.87
   3   5 -25   48.51   16.69
   3   5 -25   46.20   12.49
   1  -5 -25   43.98   11.20
  -1  -5  25   81.17   18.32
  -1   5  25   41.42   11.25
  -1  -5 -25   34.50   12.69
   1  -5  25    4.94    7.27
   1   5  25   16.21    8.61
   3  -5  25   40.10   12.15
   3   5  25   22.66    8.75
   5  -5  25   10.74    7.69
   5   5  25   35.15   10.75
   7  -5  25   33.06   12.25
   7   5  25    9.86    8.85
   9  -5  25    8.72    8.83
  -9   5 -25    8.61   10.94
   9   5  25   34.54   12.35
  11  -5  25   27.32   11.50
  11   5  25    2.57   10.24
  12  -6 -25   65.98   18.86
  12   6 -25   80.69   27.72
  10   6 -25   12.90    8.18
   8   6 -25   30.09   14.14
  -6  -6  25   13.69    7.32
   6  -6 -25   -0.71    5.38
   6   6 -25   18.13    8.93
   4  -6 -25  182.42   18.15
  -4  -6  25  171.19   22.26
   4   6 -25  162.81   22.99
  -4   6  25  147.05   15.36
   2  -6 -25   16.56    6.61
  -2  -6  25    5.27    8.06
  -2   6  25    5.55    5.69
   2   6 -25   -1.14    7.27
   2   6 -25   12.79    9.73
   0  -6  25   69.77   16.68
   0  -6 -25   80.32   16.90
   0   6  25   65.07   13.89
   2  -6  25    4.61    6.39
   2   6  25   -0.68    4.80
   4  -6  25   79.12   15.81
  -4   6 -25   40.89   16.81
   4   6  25   69.47   14.59
   6  -6  25    0.07    5.69
   6   6  25    4.60    7.83
  -6   6 -25    8.35    9.09
   8  -6  25   34.23   11.61
  -8   6 -25   13.04   13.09
   8   6  25   46.29   13.93
  10  -6  25   11.15    7.17
 -10   6 -25   -0.62    4.64
 -10   6 -25   -0.85    7.01
  10   6  25   -0.18    7.66
  11   7 -25   10.69   15.00
   9   7 -25    7.66    9.30
   7   7 -25   65.62   19.69
   5  -7 -25   75.69   15.05
  -5  -7  25   19.88   12.65
   5   7 -25   31.86   13.79
  -3  -7  25   24.24   10.53
   3  -7 -25   10.20    8.02
  -3   7  25   18.03    6.56
   3   7 -25   58.35   16.94
  -1  -7  25   32.43   11.92
   1  -7 -25   71.32   15.78
   1   7 -25   27.08   10.83
   1   7 -25   37.99   12.05
   1  -7  25    8.94    9.02
  -1   7 -25    7.09    9.88
   1   7  25    3.04    6.02
   3  -7  25   -2.25    4.83
   3   7  25   26.01    9.30
  -3   7 -25    6.99    9.35
   5  -7  25   41.38   12.31
  -5   7 -25   15.36   11.11
   5   7  25    1.03    6.01
   7  -7  25    1.35    7.13
   7   7  25    6.21    8.62
  -7   7 -25   -4.95    7.34
   9  -7  25   18.23   10.27
  -9   7 -25    0.17    6.93
   9   7  25    3.21    8.26
  10   8 -25   52.20   18.78
   8   8 -25   19.00   10.58
   6  -8 -25   90.07   20.70
  -6  -8  25  135.09   29.64
   6   8 -25  100.87   27.41
   4  -8 -25    3.04    4.34
  -4  -8  25    6.91    6.63
   4   8 -25    7.85    6.23
  -2  -8  25  120.32   23.37
   2   8 -25  183.07   24.15
  -2   8  25  156.38   14.38
   2   8 -25  169.44   22.67
   0  -8  25   22.58    9.43
   0   8 -25   17.33    8.77
   0   8  25   16.24    6.04
   2  -8  25  103.05   19.73
   2   8  25  103.35   13.49
  -2   8 -25   94.84   24.48
  -2   8 -25   82.49   19.18
   4  -8  25   15.80    6.97
  -4   8 -25   22.93    9.12
   4   8  25   14.59    6.84
  -4   8 -25    7.33    5.42
   6  -8  25   59.40   13.84
  -6   8 -25   31.40   11.45
   6   8  25   66.45   15.06
  -6   8 -25   61.35   16.64
   8  -8  25    3.52    5.92
  -8   8 -25    2.68    4.68
   8   8  25    0.68    6.49
  -8   8 -25    3.25    7.14
   9   9 -25   51.46   24.47
   7   9 -25   30.39   13.14
  -5  -9  25   47.23   16.34
   5   9 -25   20.96   12.60
  -3  -9  25    9.56    9.33
   3   9 -25   18.32   12.00
  -1  -9  25   59.38   16.54
   1   9 -25   85.09   16.83
   1   9 -25   68.76   19.58
   1  -9  25   20.11    8.43
  -1   9 -25   18.98    9.10
   1   9  25   35.13   10.29
   3  -9  25   68.80   17.11
  -3   9 -25   49.87   16.24
  -3   9 -25   69.56   15.63
   5  -9  25   12.69    7.80
   5   9  25   57.33   12.67
  -5   9 -25   21.21    9.61
  -5   9 -25   21.36    9.44
   7  -9  25   19.26    9.51
  -7   9 -25   19.51    9.07
   7   9  25    6.31    8.63
  -7   9 -25   -0.63    5.77
  -9   9 -25   -0.45    3.88
   8  10 -25   82.80   26.40
   6  10 -25    9.20    7.97
  -4 -10  25   94.77   24.55
   4  10 -25   74.25   22.40
  -2 -10  25   15.94   10.22
   2  10 -25    9.05    7.02
   0 -10  25  172.06   22.14
   0  10  25  130.00   12.87
   0  10 -25  117.64   25.16
   2 -10  25   19.27    8.14
  -2  10 -25    5.93    5.38
  -2  10 -25   17.94    7.98
   2  10  25   14.59    5.36
   4 -10  25  210.82   22.90
  -4  10 -25  221.50   24.92
   4  10  25  197.45   18.92
   6 -10  25   17.56    8.23
   6  10  25   13.04    7.41
  -6  10 -25    1.23    6.00
  -6  10 -25   15.02    7.50
   7  11 -25    7.06    8.59
  -5 -11  25    3.17   11.38
   5  11 -25   24.77   13.15
  -3 -11  25   30.78   16.31
   3  11 -25   49.98   17.48
  -1 -11  25   45.87   15.49
   1  11 -25   14.69    9.90
   1  11 -25   20.95   10.87
   1 -11  25   -0.55    7.25
  -1  11 -25   42.61   12.42
  -1  11 -25    7.03   10.69
   3 -11  25    3.00    6.47
  -3  11 -25   20.01   11.57
   3  11  25   27.02    8.84
   5 -11  25   13.47   10.04
   5  11  25   17.67    8.13
  -5  11 -25   32.65   14.32
  -4 -12  25   10.65    8.58
   4  12 -25    7.38    6.22
  -2 -12  25   97.41   23.72
   2  12 -25  130.11   28.64
   0 -12  25    8.81    7.53
   0  12 -25   12.32    8.01
   2 -12  25   89.45   20.45
  -2  12 -25   82.24   20.45
   4 -12  25   12.84    9.02
   4  12  25    4.66    5.24
  -4  12 -25    0.19    4.79
  -4  12 -25    8.90    7.00
  -1 -13  25   54.94   18.42
   1  13 -25   52.42   19.78
  -1  13 -25   29.58   14.91
  -1  13 -25   -0.46    5.71
  12   0 -26   94.54   26.59
  10   0 -26   15.95    9.67
  -6   0  26   11.72    6.94
  -4   0  26   95.80   19.71
   4   0 -26   91.91   12.81
  -2   0  26    6.69    6.60
   0   0  26  246.14   22.13
   2   0  26    6.91    7.74
  -2   0 -26    0.00    7.33
   4   0  26  143.85   17.52
   6   0  26    5.10    7.63
  10   0  26   -2.70    6.62
  12   0  26   97.92   20.34
  13  -1 -26   23.38   15.76
  13   1 -26   -0.58    9.96
  11  -1 -26   34.26   15.08
  11   1 -26   11.27   10.07
   9  -1 -26   15.67   10.08
   9   1 -26    7.25    8.72
  -5  -1  26   34.27   11.98
   5  -1 -26   70.01   21.26
  -5   1  26   69.15   17.26
   3  -1 -26   56.55   12.37
  -3  -1  26   86.56   18.06
  -3   1  26   37.88   11.85
  -1  -1  26   47.54   12.86
   1  -1  26   39.27   11.20
   1   1  26   13.70    8.23
  -1   1 -26   65.24   15.36
  -3  -1 -26   91.70   29.89
   3   1  26   83.86   17.49
   5  -1  26   78.87   15.75
   7  -1  26   12.28    8.61
   7   1  26   41.31   12.56
   9  -1  26   65.92   16.73
  11  -1  26   37.72   14.37
  11   1  26   44.30   13.78
  12  -2 -26    6.53    6.36
  12   2 -26    2.56    4.73
  10  -2 -26   51.08   15.30
  10   2 -26   50.87   16.82
   8   2 -26   13.30    8.59
  -6  -2  26   77.65   19.01
   4  -2 -26   17.29    7.61
  -4  -2  26    7.69    5.57
  -4   2  26    4.88    5.40
  -2  -2  26  173.77   20.86
   2  -2 -26  197.42   18.45
  -2   2  26  174.00   18.69
   0  -2 -26   12.94    6.75
   0  -2  26    9.11    6.44
   0   2  26    5.88    6.82
   0   2 -26   12.62   10.01
   2  -2  26  175.56   18.67
  -2   2 -26  207.95   21.69
   2   2  26  169.09   17.78
   4  -2  26    4.21    5.98
  -4   2 -26   -3.04    7.13
   4   2  26    2.63    6.90
   6  -2  26  105.49   19.75
   6   2  26  120.90   16.78
   8  -2  26    4.29    6.86
  -8   2 -26   -3.04    5.18
   8   2  26    6.46    7.94
  10  -2  26  126.70   17.63
  10   2  26  130.71   17.79
  11  -3 -26   39.03   13.82
  11   3 -26   22.63   11.44
   9   3 -26   34.00   14.18
   7   3 -26   27.80   12.03
  -5  -3  26   32.43   13.72
   5  -3 -26   21.49    9.44
  -5   3  26   10.24    7.63
  -3  -3  26   30.40   11.80
   3  -3 -26   64.19   14.59
   3   3 -26   20.48   12.56
  -3   3  26   50.01   12.76
  -1  -3  26  109.07   21.25
   1  -3 -26   52.31   12.17
  -1   3  26   32.47   10.52
   1  -3  26   33.98   10.17
  -1  -3 -26   72.24   17.90
   1   3  26   46.91   12.48
  -1   3 -26   31.12   10.55
   3  -3  26   85.86   16.60
  -3   3 -26  106.28   20.78
   5  -3  26   33.19   10.91
  -5   3 -26   30.53   12.74
   5   3  26   68.03   14.69
   7  -3  26   28.98   10.08
   7   3  26    9.28    8.47
   9  -3  26   10.60    8.66
   9   3  26   10.76    9.98
  -9   3 -26    7.23    9.74
  11  -3  26   16.04   10.99
  11   3  26    2.89    8.59
  12  -4 -26   90.87   22.34
  12   4 -26   73.51   21.71
  10   4 -26   10.56    8.17
   8   4 -26  154.33   32.17
  -6  -4  26    8.44    7.15
   6   4 -26    4.27    5.66
  -4  -4  26   87.38   20.61
   4  -4 -26  122.42   14.76
   4   4 -26   78.57   18.46
  -4   4  26   96.23   13.71
   2  -4 -26   14.55    6.24
  -2  -4  26    5.07    7.11
   2   4 -26   13.68    6.85
  -2   4  26    9.61    5.53
   0  -4 -26  312.34   26.91
   0  -4  26  226.91   23.41
   0   4  26  241.42   20.87
   0   4 -26  256.01   22.09
   2  -4  26    2.50    5.67
  -2   4 -26   17.32   10.38
   2   4  26   -1.52    5.37
  -4   4 -26  303.19   27.77
   4   4  26  322.37   24.50
   6  -4  26    6.27    7.48
  -6   4 -26   -3.16    8.27
   6   4  26    6.93    8.08
   8  -4  26   92.67   18.70
   8   4  26   80.66   17.74
  10  -4  26    6.79    7.94
  10   4  26   -0.06    7.41
 -10   4 -26    0.32    7.00
  11  -5 -26    8.59    8.53
  11   5 -26   28.31   15.84
   9   5 -26   18.70   10.50
   7   5 -26   74.83   19.29
  -5  -5  26   62.77   18.70
   5   5 -26   39.36   15.23
  -3  -5  26  105.59   21.77
   3  -5 -26   37.11   11.07
  -3   5  26   61.18   13.72
   3   5 -26  106.40   25.33
   1  -5 -26  151.59   31.35
  -1   5  26   99.74   13.94
   1  -5  26   44.58   13.45
  -1   5 -26   63.44   14.78
   1   5  26   25.40    9.24
   3  -5  26   18.96    9.80
   3   5  26   36.39   10.54
  -3   5 -26   28.99   18.11
   5  -5  26   52.82   13.66
  -5   5 -26   44.73   18.53
   7  -5  26    5.58    8.26
   7   5  26    7.17    8.47
  -7   5 -26    5.82    9.60
   9  -5  26   35.96   12.95
   9   5  26   12.30   10.20
  -9   5 -26   24.12   13.87
  10   6 -26   32.94   17.17
   8   6 -26   15.78    9.43
  -6  -6  26  129.09   25.33
   6   6 -26  167.12   24.52
  -4  -6  26   13.99    7.70
   4   6 -26    7.24    6.15
  -4   6  26    9.68    4.97
  -2  -6  26  214.09   24.22
   2   6 -26  219.76   26.07
  -2   6  26  241.33   19.98
   0  -6  26   18.16    8.43
   0   6  26   18.64    7.72
   0   6 -26   -2.18    7.13
   2  -6  26  177.60   20.16
  -2   6 -26  193.48   41.69
   2   6  26  163.55   17.35
   4  -6  26   -0.38    5.30
   4   6  26    5.69    6.14
   6  -6  26  135.26   17.69
   6   6  26  118.75   16.80
   8  -6  26    0.11    6.64
   8   6  26    0.39    6.18
  10  -6  26   11.41   10.04
  10   6  26   36.92   12.89
  11   7 -26   24.58   14.92
   9   7 -26   32.95   17.31
   7   7 -26   31.60   15.01
  -5  -7  26   58.15   17.82
   5   7 -26   41.98   15.81
  -3  -7  26   29.61   13.52
   3   7 -26   40.35   14.58
  -3   7  26   58.86   12.65
  -1  -7  26  103.36   21.79
   1   7 -26   73.29   18.24
  -1   7  26   43.00   10.64
   1  -7  26   13.49    9.34
   1   7  26   25.98    9.26
  -1   7 -26    7.47    6.90
  -1   7 -26   12.11    7.49
   3  -7  26   37.75   13.05
   3   7  26   15.32    7.77
   5   7  26   47.88   13.49
   7  -7  26   17.88    9.63
  -7   7 -26   10.78   15.52
   7   7  26    0.67    7.22
   9  -7  26    2.39    9.03
   9   7  26    8.37    9.09
  -9   7 -26    1.85    7.57
  10   8 -26   21.72   12.40
   8   8 -26  102.66   29.80
  -6  -8  26   11.24    8.74
   6   8 -26   10.23    7.90
  -4  -8  26   54.46   16.53
   4   8 -26   91.68   22.87
  -2  -8  26   15.17    8.75
   2   8 -26   18.01    9.57
  -2   8  26   12.04    5.62
   0  -8  26  141.12   20.20
   0   8 -26  148.24   17.70
   0   8 -26  163.40   22.58
   0   8  26  135.53   15.20
   2  -8  26   12.21    7.05
  -2   8 -26   10.48    7.51
   2   8  26   12.43    6.17
   4  -8  26  170.03   20.08
   4   8  26  167.77   19.43
  -4   8 -26  137.21   19.26
   6  -8  26    1.01    5.54
  -6   8 -26   17.58    8.93
   6   8  26    0.84    6.35
  -6   8 -26   12.83    7.57
   8  -8  26   74.38   17.60
  -8   8 -26   44.78   13.29
   8   8  26   37.61   12.62
   9   9 -26    3.24    7.85
   7   9 -26   60.01   22.71
  -5  -9  26   32.45   15.09
   5   9 -26    4.90   10.51
  -3  -9  26   26.47   13.24
   3   9 -26   51.73   17.33
  -1  -9  26   19.66    9.55
   1   9 -26   28.59   12.21
   1  -9  26   45.05   13.69
  -1   9 -26   61.42   18.84
  -1   9 -26   45.22   16.83
   3  -9  26   30.34   12.92
   3   9  26   61.44   14.28
  -3   9 -26   40.61   14.01
   5  -9  26   42.67   13.12
   5   9  26   28.06    9.91
  -5   9 -26   32.05   12.67
  -5   9 -26   33.91   12.91
   7  -9  26    3.72    9.09
   7   9  26   10.64   11.38
  -7   9 -26    6.22    7.23
  -7   9 -26    0.22    6.21
   8  10 -26   11.39    9.30
   6  10 -26   47.90   19.30
  -4 -10  26   22.73   12.05
   4  10 -26   10.12    8.34
  -2 -10  26  105.09   24.15
   2  10 -26  117.24   25.11
   0 -10  26   10.63    7.46
   0  10  26    2.75    3.33
   0  10 -26    1.91    5.85
   0  10 -26    5.55    7.66
   2 -10  26   86.99   18.70
   2  10  26  111.04   13.73
  -2  10 -26  115.25   26.17
   4 -10  26   15.60    7.24
   4  10  26   20.02    8.81
  -4  10 -26   21.13   10.09
   6 -10  26   58.96   14.81
   6  10  26   56.03   14.64
  -6  10 -26   38.78   13.99
  -5 -11  26   11.23   13.65
   5  11 -26   20.01   12.67
  -3 -11  26    9.19    9.25
   3  11 -26   33.81   17.58
  -1 -11  26   41.08   14.60
   1  11 -26   50.60   17.01
   1 -11  26    8.25    8.08
  -1  11 -26   16.79   12.25
   3 -11  26   12.81   11.92
  -3  11 -26   20.80   12.81
  -3  11 -26   -1.29    5.47
   3  11  26   14.08    7.91
   5 -11  26   11.25    9.10
  -5  11 -26    1.62    6.28
  -5  11 -26   10.69    8.22
   5  11  26   33.91   10.63
  -4 -12  26   42.08   17.48
   4  12 -26   49.22   19.58
  -2 -12  26    6.70    7.89
   2  12 -26   23.58   13.28
   0 -12  26   79.94   22.32
   0  12 -26   62.81   19.87
   2 -12  26    3.77    6.20
   2  12  26   -1.05    2.96
  -2  12 -26    0.14    6.37
  -2  12 -26    0.43    6.13
  12   0 -27   14.51    8.43
  10   0 -27   30.96   14.13
  -6   0  27  121.27   22.71
  -4   0  27    9.26    5.21
  -2   0  27  123.91   22.79
   0   0  27   13.07    7.51
   2   0  27   47.26   12.74
   4   0  27    4.37    6.04
   6   0  27  115.25   20.95
   8   0  27    6.30    8.65
  10   0  27  138.28   27.65
  11  -1 -27   27.72   13.29
  11   1 -27   -0.30    6.70
   9  -1 -27   12.83    8.60
   9   1 -27   16.20   10.88
  -5  -1  27   35.58   12.69
  -3   1  27   60.20   15.45
  -1  -1  27   98.57   18.88
  -1   1  27   39.51   12.38
   1  -1  27   22.81    8.89
   1   1  27   28.56    8.79
   3  -1  27   63.63   14.87
   3   1  27   12.76    7.72
   5   1  27   76.76   17.45
   7  -1  27   75.51   17.12
   7   1  27   27.98   10.50
   9  -1  27    4.01    8.63
   9   1  27   24.75   10.75
  11  -1  27   44.26   14.96
  11   1  27    6.31    9.27
  12  -2 -27   46.49   17.77
  12   2 -27   46.37   18.26
  10  -2 -27   11.98    7.16
  10   2 -27    5.06    5.32
   8   2 -27   93.34   23.06
  -6  -2  27    1.85    3.99
  -4  -2  27   27.84   12.26
  -4   2  27   21.48   10.03
  -2  -2  27    7.55    7.05
  -2   2  27    9.60    5.97
   0  -2  27  111.11   16.13
   0   2  27  100.07   17.90
   2  -2  27    1.82    6.07
   2   2  27    6.91    6.36
   4  -2  27  127.74   16.72
   4   2  27  137.36   17.10
   6  -2  27    3.29    7.30
   6   2  27    2.81    7.86
   8  -2  27  100.81   18.78
   8   2  27   79.96   17.60
  10  -2  27    0.40    6.66
  10   2  27   -2.71    6.90
  11   3 -27   49.69   19.32
   9   3 -27   -2.07    6.82
   7   3 -27   32.77   12.29
  -5  -3  27    5.85    7.46
  -5   3  27   21.73    9.73
  -3  -3  27   49.65   14.44
  -1  -3  27   29.91   13.03
  -1   3  27   80.39   16.30
   1  -3  27   50.81   13.50
   1   3  27   26.53   10.01
   3  -3  27   43.82   13.20
   5  -3  27   77.04   16.07
   5   3  27   13.91    9.66
   7  -3  27   -0.97    6.93
   7   3  27   42.27   13.20
   9  -3  27   20.88   10.16
   9   3  27    0.78    7.77
  12  -4 -27    6.17    5.85
  12   4 -27    9.07    8.32
  10   4 -27  167.23   34.79
   8   4 -27   11.46    9.14
  -6  -4  27  175.76   23.75
   6   4 -27  215.04   26.78
  -4  -4  27    5.16    5.82
  -4   4  27   11.89    6.05
   4   4 -27    4.84    5.31
  -2  -4  27  203.28   22.88
  -2   4  27  252.93   22.06
   0  -4  27   11.45    7.94
   0   4  27   14.51    6.41
   2   4  27  246.19   21.71
   4  -4  27   -1.55    6.89
   4   4  27    5.93    6.74
   6  -4  27  115.74   21.13
   6   4  27   92.71   19.00
   8  -4  27   10.16    8.96
   8   4  27   -2.32    6.47
  10  -4  27  109.17   20.76
  10   4  27   97.51   21.31
  11  -5 -27   52.85   17.25
  11   5 -27   27.07   13.56
   9   5 -27   53.25   18.74
   7   5 -27   32.07   13.34
  -5  -5  27   73.72   20.00
   5   5 -27   65.94   20.09
  -3  -5  27   45.43   13.99
   3   5 -27   51.90   18.53
  -1   5  27   65.12   14.59
   1  -5  27   26.63   10.60
   1   5  27   69.89   14.82
   3  -5  27   65.02   15.99
  -3   5 -27   64.07   21.79
   5  -5  27   30.67   12.07
   5   5  27   62.20   15.64
   7  -5  27   27.18   10.42
   7   5  27    1.27    7.60
   9  -5  27    1.30    8.51
   9   5  27   37.19   13.07
  10   6 -27    5.92   10.97
   8   6 -27  187.84   27.40
  -6  -6  27   10.02    7.81
   6   6 -27    6.30    7.57
  -4  -6  27  123.53   25.22
   4   6 -27  118.03   25.85
  -4   6  27  139.35   15.73
  -2  -6  27   17.04    8.69
  -2   6  27   12.50    6.13
   2   6 -27    6.67    5.76
   0  -6  27  308.24   27.69
   0   6  27  281.38   21.91
   2  -6  27    8.56    8.68
  -2   6 -27   15.77    9.11
   2   6  27   17.79    6.73
   4  -6  27  173.34   20.10
   4   6  27  186.88   19.52
  -4   6 -27  165.00   21.52
   6  -6  27    2.78    6.05
  -6   6 -27   -1.36    8.20
   6   6  27    9.94    9.43
   8  -6  27  105.21   21.30
   8   6  27   63.59   17.14
  -8   6 -27  121.25   25.15
   9   7 -27   18.61   12.64
   7   7 -27   37.36   16.84
  -5  -7  27   13.65   10.70
   5   7 -27   15.43    9.54
  -3  -7  27   74.12   20.27
  -3   7  27   37.81    9.93
   3   7 -27   61.15   19.36
  -1  -7  27   37.93   12.34
   1   7 -27   32.08   12.76
   1  -7  27   31.42   12.54
   1   7  27   23.88    9.12
  -1   7 -27   44.64   16.34
   3  -7  27   18.10    7.91
   3   7  27   57.89   12.87
  -3   7 -27   26.70   11.69
   5  -7  27   43.82   13.90
   5   7  27   12.99    9.79
  -5   7 -27   44.22   16.47
   7  -7  27   14.55   10.52
   7   7  27   34.65   13.04
   9  -7  27   18.20   10.59
   9   7  27    5.27    8.80
   8   8 -27   17.68   10.19
  -6  -8  27  114.93   25.73
   6   8 -27  126.50   30.76
  -4  -8  27    3.89    5.64
   4   8 -27    6.23    7.31
  -2  -8  27  137.16   26.24
   2   8 -27  125.04   25.16
  -2   8  27  119.53   13.70
   0  -8  27   13.02    7.28
   0   8 -27   15.43    9.65
   0   8  27    9.58    4.83
   2  -8  27  168.21   20.49
  -2   8 -27  124.58   23.85
   2   8  27  165.83   17.10
  -2   8 -27  190.72   21.31
   4  -8  27   23.09    8.49
  -4   8 -27    6.63    5.91
   4   8  27    4.53    7.06
   6  -8  27   93.85   19.11
   6   8  27   93.92   18.51
  -6   8 -27   74.00   17.98
   8  -8  27    2.75    6.46
  -8   8 -27    4.73    6.29
   8   8  27   -1.63    7.20
  -8   8 -27    1.38    7.92
   7   9 -27   16.16   10.82
  -5  -9  27   28.60   14.89
   5   9 -27   14.29   12.81
  -3  -9  27   10.60    9.62
   3   9 -27   19.74   12.13
  -1  -9  27   49.28   16.77
   1   9 -27   87.46   23.52
  -1   9  27   26.83    8.13
   1  -9  27   17.20    9.94
  -1   9 -27   29.97   12.10
   1   9  27   49.39   11.56
   3  -9  27   56.05   16.41
   3   9  27   33.91   10.08
  -3   9 -27   59.35   17.26
   5  -9  27   20.42   11.16
   5   9  27   53.72   13.47
  -5   9 -27    1.90    8.76
  -5   9 -27    8.76    9.54
   7  -9  27   12.04   10.13
  -7   9 -27    7.40    9.32
  -7   9 -27   -1.18    6.83
   7   9  27    4.13   10.98
   6  10 -27    6.53    7.10
  -4 -10  27   20.60   12.78
   4  10 -27   21.69   13.80
  -2 -10  27   11.04    8.67
   2  10 -27   11.53    9.36
   0 -10  27   77.18   18.99
   0  10 -27   54.84   17.57
   2 -10  27   18.68    8.56
   2  10  27    9.50    6.07
  -2  10 -27   13.62    8.28
  -2  10 -27    9.70   13.64
   4 -10  27  103.43   22.44
   4  10  27   90.18   17.58
  -4  10 -27   93.41   21.38
  -5 -11  27    9.51    9.65
   5  11 -27   20.28   12.88
  -3 -11  27   17.54   14.31
   3  11 -27   14.97   13.72
  -1 -11  27   10.06    8.57
   1  11 -27    7.42   10.00
   1 -11  27    8.77   10.41
  -1  11 -27   14.53   11.47
  -1  11 -27    9.54    9.95
   1  11  27    0.25    3.23
   3 -11  27    2.03    9.40
  -3  11 -27   -0.49    6.40
   3  11  27   15.78    8.33
  -3  11 -27    4.63    8.49
  12   0 -28   33.56   15.41
  10   0 -28   11.50    7.02
   8   0 -28  109.17   25.30
  -6   0  28    4.43    5.30
  -4   0  28  138.19   18.06
  -2   0  28   15.43    7.22
   0   0  28   88.00   18.14
   2   0  28    3.20    6.00
   4   0  28  164.93   19.10
   6   0  28    6.34    7.26
   8   0  28    5.66    8.61
  10   0  28    2.68    8.94
  11  -1 -28    9.75    8.53
  11   1 -28   14.00    9.42
   9  -1 -28    2.73    8.74
   9   1 -28    5.59    9.33
  -5  -1  28    3.51    5.89
  -5   1  28   15.86    9.46
  -3  -1  28   50.19   14.31
  -3   1  28   24.61    9.41
  -1  -1  28   35.26   12.49
  -1   1  28   67.36   15.78
   1  -1  28   29.12    9.78
   1   1  28    5.33    6.78
   3   1  28   77.84   16.70
   5  -1  28   46.61   13.98
   7  -1  28    4.54    8.21
   7   1  28   12.90   10.43
   9  -1  28   39.71   13.13
  10  -2 -28   41.13   14.20
  10   2 -28   21.34   10.55
   8   2 -28    8.72    6.37
  -6  -2  28   80.33   20.16
  -4  -2  28    8.56    5.92
  -4   2  28    6.41    5.63
  -2  -2  28   74.10   16.27
  -2   2  28  102.95   14.85
   0  -2  28    7.82    4.82
   0   2  28    9.84    6.96
   2  -2  28  100.69   18.68
   2   2  28  128.05   16.58
   4  -2  28    5.21    6.24
   4   2  28   12.74    7.63
   6  -2  28   79.75   17.14
   6   2  28   75.43   18.10
   8  -2  28    5.96    8.02
   8   2  28    8.36    8.54
  10  -2  28   24.49   11.35
  10   2  28   10.63   11.93
  11  -3 -28   15.88   10.42
  11   3 -28    8.65    8.91
   9   3 -28   24.05   13.10
   7   3 -28   23.98   11.26
  -5  -3  28   29.26   11.31
  -3  -3  28   23.41   10.17
  -3   3  28   28.83   11.22
  -1  -3  28   66.83   15.67
  -1   3  28   26.91    9.50
   1   3  28   84.71   17.35
   3  -3  28   52.13   13.60
   3   3  28   32.96   11.84
   5  -3  28   19.36   10.74
   5   3  28   43.78   13.64
   7  -3  28   10.56   10.41
   7   3  28    1.72    8.26
   9  -3  28   14.69    9.18
   9   3  28    9.80    9.94
  10   4 -28   15.23    9.79
   8   4 -28   47.34   15.38
  -6  -4  28   12.40    7.97
   6   4 -28   14.67   10.50
  -4  -4  28   60.56   17.42
  -4   4  28   56.56   14.30
   4   4 -28   57.63   17.39
  -2  -4  28   14.79    6.45
  -2   4  28   10.88    5.04
   0  -4  28   67.40   16.28
   0   4  28   82.21   17.37
   2  -4  28    7.55    6.93
   2   4  28    7.99    7.21
   4  -4  28  215.22   22.25
   4   4  28  206.60   21.08
   6  -4  28    5.24    6.59
   6   4  28    4.98    8.14
   8  -4  28   81.69   18.04
   8   4  28   49.87   15.78
   9   5 -28   37.23   16.55
   7   5 -28   60.85   20.83
  -5  -5  28   26.06   11.52
   5   5 -28   33.99   15.93
  -3  -5  28   71.18   18.42
  -3   5  28   44.25   11.96
   3   5 -28  101.25   24.49
  -1   5  28  123.66   15.65
   1  -5  28   61.10   17.02
   1   5  28   36.13   10.47
   3  -5  28   42.39   12.16
   3   5  28   81.96   16.83
   5  -5  28   50.38   13.97
   5   5  28   22.02    9.86
   7  -5  28   11.68    9.46
   7   5  28   30.44   12.63
   9  -5  28   14.47   11.57
   9   5  28    1.16    8.82
  10   6 -28   16.87   14.72
   8   6 -28   13.93    8.87
  -6  -6  28    9.62   11.77
   6   6 -28   15.06   11.97
  -4  -6  28   17.94    9.17
   4   6 -28   12.18    8.67
  -4   6  28    5.63    4.19
  -2  -6  28  117.27   22.86
   2   6 -28   93.21   22.76
  -2   6  28  126.41   15.64
   0  -6  28   14.33    9.32
   0   6  28   17.80    6.39
   2  -6  28   89.14   18.81
   2   6  28  108.03   15.28
   4  -6  28   13.26    8.72
   4   6  28    8.09    6.05
   6  -6  28  143.43   19.29
   6   6  28  136.95   19.18
   8  -6  28    6.87    8.66
   8   6  28    2.79    8.53
   9   7 -28   40.77   18.54
   7   7 -28   10.89   10.94
  -5  -7  28   45.80   17.56
   5   7 -28   59.43   20.86
  -3  -7  28   29.77   12.28
   3   7 -28   24.26   12.38
  -3   7  28   63.99   13.87
  -1  -7  28   82.39   19.52
   1   7 -28   84.11   22.97
   1  -7  28   30.76   10.73
   1   7  28   59.18   13.63
  -1   7 -28   22.35   11.35
   3  -7  28   54.28   15.50
   3   7  28   32.50   10.29
   5  -7  28   23.72   10.64
   5   7  28   40.53   13.49
   7  -7  28   39.28   12.85
   7   7  28    0.14    7.65
  -7   7 -28   12.94   16.35
   8   8 -28   37.91   17.45
  -6  -8  28    6.53    8.51
   6   8 -28   15.99    9.63
  -4  -8  28   48.84   18.16
   4   8 -28   36.01   14.01
  -2  -8  28   10.75    6.42
   2   8 -28   10.37    8.06
  -2   8  28    8.12    4.91
   0  -8  28   84.03   20.08
   0   8 -28   72.99   20.51
   0   8  28   94.90   13.61
   2  -8  28   18.02    8.09
  -2   8 -28   10.51    7.83
   2   8  28   11.78    5.19
   4  -8  28  189.14   21.23
   4   8  28  147.18   17.34
  -4   8 -28  150.41   21.22
   6  -8  28    8.16    7.75
  -6   8 -28    6.15    6.18
   6   8  28    1.77    7.94
  -6   8 -28    9.05   12.52
   7   9 -28   47.79   20.36
  -5  -9  28   15.83    9.77
   5   9 -28   11.58   10.36
  -3  -9  28    6.22   10.12
   3   9 -28   28.00   14.98
  -1  -9  28   25.45   11.18
  -1   9  28   39.34   11.33
   1   9 -28   27.41   12.63
   1  -9  28   43.01   14.69
   1   9  28   26.55    8.25
  -1   9 -28   70.15   19.73
   3  -9  28   11.93    9.14
  -3   9 -28   27.52   18.41
   3   9  28   81.36   15.40
  -3   9 -28   32.89   12.68
   5  -9  28   49.16   15.58
   5   9  28   14.11    9.47
  -5   9 -28   41.67   14.82
   6  10 -28   46.79   20.73
  -4 -10  28   13.80    9.35
   4  10 -28   11.07    9.07
  -2 -10  28   42.88   15.78
   2  10 -28   67.41   21.20
   0 -10  28   11.65    8.66
   0  10 -28   10.93    7.43
   2 -10  28   84.68   20.16
   2  10  28   81.35   15.89
  -2  10 -28   69.93   19.22
   4 -10  28   13.42    7.58
   4  10  28    0.09    6.60
  -4  10 -28    2.72    5.95
  -3 -11  28    6.65    8.16
   3  11 -28    9.76   11.41
  -1 -11  28   35.55   15.54
   1  11 -28   23.25   16.29
   1 -11  28   -2.54    7.32
   1  11  28   -0.53    3.42
  -1  11 -28    4.82    7.43
  10   0 -29  140.12   30.49
   8   0 -29   10.60    8.01
  -6   0  29  166.40   21.67
  -4   0  29   10.87    6.61
  -2   0  29  140.22   18.34
   0   0  29   19.87    7.70
   2   0  29  120.33   16.54
   4   0  29    1.80    6.05
   6   0  29  137.20   17.96
   8   0  29    3.06    8.65
  11  -1 -29   28.78   14.47
  11   1 -29   23.65   14.13
   9  -1 -29   -0.17    7.83
   9   1 -29   15.12   12.99
  -5  -1  29   18.20   12.16
  -5   1  29    7.62    8.50
  -3  -1  29   16.38    7.93
  -3   1  29    9.90    7.84
  -1  -1  29   56.22   14.39
   1  -1  29    3.42    7.27
   1   1  29   26.75   10.99
   3  -1  29   39.50   11.38
   3   1  29   27.87    9.32
   5  -1  29    7.09    8.46
   5   1  29   32.16   11.60
   7  -1  29   38.61   12.54
   7   1  29    7.28    9.74
   9  -1  29   30.05   12.88
   9   1  29   40.61   14.82
  10  -2 -29    8.14    6.67
  10   2 -29   10.28    9.76
   8   2 -29   67.60   18.99
  -6  -2  29   11.00    7.63
  -4  -2  29   61.26   17.98
  -4   2  29   74.90   17.81
  -2  -2  29    9.50    6.86
  -2   2  29   14.47    6.40
   0  -2  29   68.09   16.84
   0   2  29   62.42   15.03
   2  -2  29    6.40    6.49
   2   2  29    1.30    5.43
   4  -2  29  140.34   18.48
   4   2  29  168.78   19.29
   6  -2  29    6.63    8.69
   6   2  29    9.53    9.77
   8  -2  29  116.58   22.89
   8   2  29   98.34   21.22
   9   3 -29    6.92    8.27
   7   3 -29   23.40   10.84
  -5  -3  29   15.46    9.43
   5   3 -29   -0.47    6.91
  -5   3  29   11.12    9.33
  -3  -3  29   33.69   13.30
  -3   3  29   12.32    7.41
  -1  -3  29   29.53   10.68
  -1   3  29   43.80   12.25
   1  -3  29   51.12   13.75
   1   3  29   25.73    9.90
   3  -3  29   30.18   10.79
   3   3  29   70.74   14.99
   5  -3  29   52.16   14.13
   5   3  29   24.23   10.77
   7  -3  29   10.74    8.76
   7   3  29   13.54   10.59
   9  -3  29   19.46   11.03
   9   3  29    5.77    9.92
  10   4 -29   60.80   20.55
   8   4 -29    8.21    6.61
  -6  -4  29  131.37   26.59
   6   4 -29  105.74   25.99
  -4  -4  29   12.71    9.15
  -4   4  29    8.05    5.38
   4   4 -29   12.17    7.56
  -2  -4  29   80.10   20.30
  -2   4  29   71.43   15.83
   0  -4  29   13.62    8.12
   0   4  29    9.34    6.84
   2  -4  29   96.06   19.85
   2   4  29  102.45   14.97
   4  -4  29   18.38    7.56
   4   4  29    4.37    5.67
   6  -4  29   85.86   17.69
   6   4  29  124.29   21.66
   8  -4  29    4.53    6.75
   8   4  29    0.62    7.20
   9   5 -29    9.91   11.39
   7   5 -29    8.75    8.67
  -5  -5  29   40.57   14.49
   5   5 -29   29.90   14.69
  -3  -5  29   20.70   11.31
  -3   5  29   59.04   14.19
   3   5 -29   31.31   12.58
  -1  -5  29   72.26   17.84
  -1   5  29   26.88    8.92
   1  -5  29   37.10   12.82
   1   5  29   64.99   14.04
   3  -5  29   81.60   17.55
   3   5  29   35.05   11.35
   5  -5  29   29.46   10.13
   5   5  29   53.10   13.18
   7  -5  29   48.53   14.68
   8   6 -29   25.48   14.14
  -6  -6  29    8.74    6.50
   6   6 -29   21.28   12.13
  -4  -6  29   93.11   23.22
  -4   6  29  110.58   14.58
   4   6 -29   63.93   19.68
  -2  -6  29   18.26    9.20
   2   6 -29   16.90   11.16
  -2   6  29    7.60    4.94
   0  -6  29   25.61   11.96
   0   6  29   30.39   11.19
   2  -6  29   12.87    6.52
   2   6  29    8.12    7.61
   4  -6  29   97.57   20.16
   4   6  29   76.19   16.20
   6  -6  29    5.58    6.82
   6   6  29    6.19    8.65
   8  -6  29   95.44   19.26
   8   6  29   84.49   20.68
   7   7 -29   17.83   14.26
  -5  -7  29   20.50   12.53
   5   7 -29   11.45   10.67
  -3  -7  29   27.94   12.93
   3   7 -29   40.08   17.62
  -3   7  29   35.01   10.69
  -1  -7  29   21.13   10.18
  -1   7  29   48.94   13.70
   1   7 -29   17.95   11.22
   1  -7  29   60.70   16.29
   1   7  29   26.12   10.01
  -1   7 -29   40.63   15.28
   3   7  29   82.62   17.51
   5  -7  29   56.35   14.54
   5   7  29    7.37    9.25
   7  -7  29   16.54   10.28
   7   7  29   42.59   14.23
  -6  -8  29   60.71   19.20
   6   8 -29   96.29   26.05
  -4  -8  29    8.55   10.61
   4   8 -29    8.04    6.72
  -2  -8  29   45.15   16.73
  -2   8  29   41.14   10.99
   2   8 -29   49.30   18.85
   0  -8  29   20.79    9.77
   0   8  29   14.24    6.65
   0   8 -29    4.16    6.80
   2  -8  29   86.00   20.98
   2   8  29   77.55   16.66
  -2   8 -29   66.48   18.48
   4  -8  29   19.38    8.80
   4   8  29   12.31    9.22
  -4   8 -29    7.54    5.83
   6  -8  29   91.23   19.24
   6   8  29   74.29   17.30
  -6   8 -29   70.69   18.07
  -5  -9  29   15.94   13.22
   5   9 -29    9.48   13.22
  -3  -9  29    2.97   11.13
   3   9 -29    6.23    7.65
  -1  -9  29   55.62   18.19
   1   9 -29   40.36   16.43
   1  -9  29   27.11   11.10
   1   9  29   46.52   11.62
  -1   9 -29   17.19    9.82
   3  -9  29   42.27   14.68
   3   9  29   27.80   10.38
  -3   9 -29   56.38   18.37
  -4 -10  29   45.84   17.24
   4  10 -29   69.28   25.87
  -2 -10  29    8.39    7.56
   2  10 -29   11.36    9.36
   0 -10  29   53.55   16.83
   0  10 -29   28.77   14.02
   2 -10  29   13.72    7.17
  -2  10 -29   21.29   13.03
   2  10  29   12.10    7.83
  10   0 -30   17.25   10.68
   8   0 -30   56.79   17.63
  -6   0  30   15.65    8.50
  -4   0  30  160.14   21.00
  -2   0  30   11.78    6.01
   0   0  30  126.44   23.15
   2   0  30   11.49    7.81
   4   0  30   52.80   14.78
   6   0  30    3.86    8.59
   8   0  30   99.63   21.90
   9  -1 -30   18.27   10.87
   9   1 -30    5.57    6.79
  -5  -1  30   26.80   11.32
  -5   1  30   29.09   12.10
  -3  -1  30   40.76   13.20
  -3   1  30   13.19    9.90
  -1  -1  30   28.90   10.09
  -1   1  30   25.50   11.26
   1  -1  30    6.54    8.03
   1   1  30   18.33    7.57
   3  -1  30   10.22    7.29
   3   1  30   60.60   14.25
   5  -1  30   25.42   10.67
   5   1  30    5.15    8.71
   7  -1  30    4.18    8.41
   7   1  30   44.85   15.05
   9  -1  30   28.64   12.33
   9   1  30   10.29   11.21
  10  -2 -30   29.32   12.78
  10   2 -30   47.46   18.99
   8   2 -30    4.89    6.65
  -6  -2  30   84.60   20.88
  -4  -2  30   11.57    8.12
  -4   2  30   10.04    6.54
  -2  -2  30  126.17   23.48
  -2   2  30  109.14   20.83
   0  -2  30    7.08    7.82
   0   2  30    7.03    7.14
   2  -2  30   75.70   17.79
   2   2  30   94.10   19.72
   4  -2  30    3.00    4.93
   4   2  30    3.61    7.25
   6  -2  30   42.38   13.69
   6   2  30   66.24   15.02
   8  -2  30    3.64    7.67
   8   2  30   -3.59    6.46
   9   3 -30   35.35   16.24
   7   3 -30   22.19   11.58
  -5  -3  30   11.62   11.15
  -5   3  30    5.42    7.59
   5   3 -30   16.94   10.53
  -3  -3  30    2.36    7.08
  -3   3  30   31.68   10.85
  -1  -3  30   29.70   12.02
  -1   3  30   17.37    9.28
   1  -3  30   26.41   11.05
   1   3  30   28.14   10.86
   3  -3  30   78.72   18.04
   5  -3  30   17.98   10.66
   5   3  30   38.05   12.47
   7  -3  30   18.07    9.55
   7   3  30    4.21    8.82
   8   4 -30  132.12   27.84
  -6  -4  30   12.50    8.98
   6   4 -30    5.66    7.05
  -4  -4  30   80.40   20.06
   4   4 -30  107.70   26.32
  -4   4  30   82.77   18.16
  -2  -4  30   11.65    7.94
  -2   4  30   18.73    7.80
   0  -4  30  111.25   22.14
   0   4  30   96.95   18.68
   2  -4  30    9.72    7.43
   2   4  30    7.91    6.93
   4  -4  30   71.84   16.27
   4   4  30   71.91   16.14
   6  -4  30    8.65    8.01
   6   4  30    5.67    9.47
   8  -4  30   85.49   19.48
   8   4  30   75.31   19.14
   9   5 -30   -1.04    8.72
   7   5 -30   11.24   12.37
  -5  -5  30   13.16    8.85
   5   5 -30    6.66   10.54
  -3  -5  30   52.49   16.26
   3   5 -30   23.54   11.64
  -3   5  30   19.97    8.79
  -1  -5  30   27.35   10.60
  -1   5  30   49.13   14.23
   1  -5  30   39.49   11.96
   1   5  30   23.95    9.90
   3   5  30   51.94   12.66
   5  -5  30   46.28   14.08
   5   5  30   15.17   10.35
   7  -5  30    7.48    9.02
   7   5  30   38.52   15.15
   8   6 -30   -7.57    5.30
  -6  -6  30  155.09   33.31
   6   6 -30  176.83   33.05
  -4  -6  30   14.21    7.84
   4   6 -30   14.74    9.54
  -4   6  30    9.40    6.38
  -2  -6  30   90.18   19.87
   2   6 -30   53.44   17.14
  -2   6  30   71.20   16.03
   0  -6  30   13.71    7.39
   0   6 -30    7.40    8.40
   0   6  30    7.14    6.26
   2  -6  30   34.47   13.03
   2   6  30   59.72   16.11
   4  -6  30   10.96    8.20
   4   6  30    8.21    8.44
   6  -6  30   71.25   18.27
   6   6  30   45.92   15.29
   7   7 -30    6.35   10.95
  -5  -7  30   21.19   13.93
   5   7 -30    0.86    9.01
  -3  -7  30    8.37    9.62
   3   7 -30    3.23    6.85
  -3   7  30   28.09   10.71
  -1  -7  30   45.68   16.69
  -1   7  30   12.76    7.81
   1   7 -30   12.51   11.01
   1  -7  30   23.09   11.58
  -1   7 -30   16.10   11.18
   1   7  30   24.48   10.65
   3  -7  30   39.37   14.18
  -3   7 -30   35.66   12.63
   5  -7  30   10.68   10.95
   5   7  30   31.69   13.27
  -6  -8  30   11.97    8.62
   6   8 -30    9.65    7.88
  -4  -8  30   27.80   14.85
   4   8 -30   59.09   19.30
  -2  -8  30    7.52    7.38
   2   8 -30   10.90    9.61
  -2   8  30    2.87    4.76
   0  -8  30   33.74   14.73
   0   8  30   66.41   15.60
   0   8 -30   70.84   22.21
   2  -8  30    4.77    7.90
   2   8  30    2.26    7.21
  -2   8 -30    4.67    5.64
   4  -8  30   33.76   15.02
  -4   8 -30   52.50   16.74
   4   8  30   53.44   15.03
  -3  -9  30   13.90   12.64
   3   9 -30   34.74   16.56
  -1  -9  30   -1.52    7.59
   1   9 -30   21.93   11.91
  -1   9  30   -0.06    3.65
   1  -9  30   33.75   14.76
   1   9  30   24.85   10.09
  -1   9 -30    7.95   12.10
  -3   9 -30   17.40   10.10
   8   0 -31   13.08    8.40
  -6   0  31   90.34   21.55
  -4   0  31   16.15    8.72
  -2   0  31  107.24   21.04
   0   0  31    9.72    5.19
   2   0  31    4.67    8.61
   4   0  31    2.15    7.32
   6   0  31   11.36   11.23
   8   0  31    8.10    9.52
   9  -1 -31    0.73    7.93
   9   1 -31   11.25   11.98
   7   1 -31   25.01   13.96
  -5  -1  31   59.35   18.57
  -5   1  31   32.06   12.21
  -3  -1  31   15.89    8.64
  -3   1  31   28.39   12.43
  -1  -1  31   37.56   14.39
  -1   1  31   26.97   10.34
   1  -1  31    9.65    9.05
   1   1  31   17.88    9.17
   3  -1  31   38.64   11.00
   3   1  31    4.31    6.92
   5  -1  31    4.36    8.47
   5   1  31   38.34   13.49
   7  -1  31   31.90   13.63
   7   1  31    4.65    9.45
   8   2 -31    8.10   11.34
  -6  -2  31   16.52    9.33
   6   2 -31   13.56    9.04
  -4  -2  31   79.36   21.39
  -4   2  31   74.13   18.63
  -2  -2  31   11.37    6.18
  -2   2  31   15.81    7.89
   0  -2  31   41.13   14.29
   0   2  31   46.10   14.40
   2  -2  31    7.28    7.72
   2   2  31   -1.54    6.21
   4  -2  31   34.60   12.66
   4   2  31   40.16   13.10
   6  -2  31   -4.20    7.14
   6   2  31    6.12    7.72
   9   3 -31   25.99   15.34
   7   3 -31   29.90   15.97
  -5  -3  31    8.29    9.41
  -5   3  31   21.66   12.21
   5   3 -31    3.13    9.26
  -3  -3  31   23.16   11.92
  -3   3  31    9.94    7.68
  -1  -3  31    8.26    9.33
  -1   3  31   22.96    9.26
   1  -3  31   45.41   15.51
   1   3  31   27.67    9.83
   3   3  31   48.81   14.23
   5  -3  31   27.59   10.82
   5   3  31   16.20   10.10
   7  -3  31    1.36    8.53
   7   3  31   43.14   14.49
   8   4 -31   11.18    8.48
  -6  -4  31   22.51   13.97
   6   4 -31   33.87   15.00
  -4  -4  31   20.74   10.89
   4   4 -31   15.86   10.11
  -4   4  31    9.75    6.36
  -2  -4  31  120.03   24.98
  -2   4  31  128.12   17.82
   0  -4  31   16.63    7.76
   0   4  31   21.96    8.68
   2  -4  31   70.79   18.67
   2   4  31   70.60   15.93
   4  -4  31    4.33    8.46
   4   4  31    8.54    8.71
   6  -4  31   42.83   14.44
   6   4  31   58.06   16.36
   7   5 -31   16.12   14.35
   5   5 -31   50.23   19.28
  -3  -5  31   29.73   13.12
  -3   5  31   15.35    8.86
   3   5 -31   12.59   10.67
  -1  -5  31   34.37   14.19
  -1   5  31   13.04    9.32
   1  -5  31   17.90    9.80
   1   5  31   23.85   10.11
   3  -5  31   81.49   19.15
   3   5  31   15.66   11.15
   5  -5  31    3.81    8.61
   5   5  31   44.16   14.13
  -6  -6  31   11.03    9.30
   6   6 -31    7.17    6.65
  -4  -6  31   54.13   17.71
   4   6 -31   48.89   17.31
  -4   6  31   70.61   16.50
  -2  -6  31   12.52    7.71
   2   6 -31   16.08    8.76
  -2   6  31   17.45    7.62
   0  -6  31   75.66   18.71
   0   6  31   79.42   16.61
   0   6 -31   69.49   20.56
   2  -6  31    8.41    8.33
   2   6  31   -0.25    6.54
   4  -6  31   41.66   12.94
   4   6  31   51.95   15.21
  -5  -7  31   12.07   12.22
   5   7 -31   -0.10    8.09
  -3  -7  31   26.65   13.62
  -3   7  31   17.01    8.50
   3   7 -31   15.17   13.05
  -1  -7  31   18.45   12.16
  -1   7  31   27.38   11.26
   1  -7  31   13.47   11.14
  -1   7 -31   18.32   10.95
   1   7  31    9.89    8.41
   3  -7  31   20.26    9.59
   3   7  31   48.01   13.04
  -3   7 -31   19.63   11.79
  -4  -8  31   16.12   10.49
   4   8 -31   16.88   10.79
  -2  -8  31   60.95   19.71
   2   8 -31   48.17   18.42
   0  -8  31   -0.83    5.94
   0   8 -31   11.12    8.23
   0   8  31    2.81    5.27
   2  -8  31   41.54   14.71
   2   8  31   57.50   15.74
  -2   8 -31   52.50   17.67
   8   0 -32  118.75   29.81
  -6   0  32   21.53   10.77
  -4   0  32  155.63   21.09
  -2   0  32    9.82    7.48
   2   0  32    7.48    7.03
   4   0  32  130.58   23.45
   6   0  32    4.70    8.49
   7   1 -32   36.00   13.96
  -5  -1  32   23.25   11.22
  -5   1  32   50.69   15.38
  -3  -1  32   55.63   17.47
  -3   1  32   42.99   14.15
  -1  -1  32   16.28    9.88
  -1   1  32   39.95   13.70
   1  -1  32   35.37   11.82
   1   1  32   11.87   10.16
   3  -1  32   20.01   10.27
   3   1  32   12.52   10.37
   5  -1  32   11.21   10.59
   5   1  32    7.25    9.58
   7   1  32   21.74    9.97
   8   2 -32    5.37    8.23
  -6  -2  32   73.85   20.87
   6   2 -32   65.06   18.81
  -4  -2  32    9.66    7.32
  -4   2  32   11.80    6.87
  -2  -2  32  116.10   22.90
  -2   2  32   82.24   19.31
   0  -2  32    9.46    8.74
   0   2  32   16.39    9.05
   2  -2  32  140.07   19.78
   2   2  32  141.84   19.35
   4  -2  32    6.75    6.71
   4   2  32    0.44    6.55
   6  -2  32   23.10   13.57
   6   2  32   39.94   15.03
   7   3 -32    8.79    9.07
  -5  -3  32   32.03   13.77
   5   3 -32   12.61   12.56
  -5   3  32   14.62    9.65
  -3  -3  32    8.10   10.85
  -3   3  32   27.05   11.62
  -1  -3  32   27.78   12.85
  -1   3  32   11.47    9.43
   1   3  32   61.04   14.62
   3  -3  32   24.56   12.05
   3   3  32    4.58    8.24
   5  -3  32    4.31    7.99
   5   3  32   41.42   15.16
  -6  -4  32   11.84    9.40
   6   4 -32   11.25    8.19
  -4  -4  32   73.36   20.99
  -4   4  32  111.27   21.34
   4   4 -32   95.92   22.50
  -2  -4  32   11.50    9.24
  -2   4  32   16.42    8.67
   0  -4  32  101.78   21.96
   0   4  32   96.67   19.18
   2  -4  32   14.45    7.21
   2   4  32    7.80    7.60
   4  -4  32   40.18   14.27
   4   4  32   50.88   14.94
  -5  -5  32    3.08   10.88
   5   5 -32   24.13   15.31
  -3  -5  32   32.57   13.59
   3   5 -32   21.60   12.28
  -3   5  32    9.03    9.61
  -1  -5  32    5.04    8.76
  -1   5  32   13.32   10.51
   1  -5  32   23.52   12.62
   1   5  32   13.33    9.44
   3  -5  32   21.16   10.33
   3   5  32   10.32    9.77
   5  -5  32   19.45   11.47
   5   5  32    5.74    9.07
  -4  -6  32   10.21    8.40
   4   6 -32   13.72    9.24
  -4   6  32    2.94    6.04
  -2  -6  32   88.98   22.57
   2   6 -32   68.77   18.84
  -2   6  32   92.01   18.62
   0  -6  32    6.88    7.35
   0   6  32    4.43    6.93
   0   6 -32    7.22    8.07
   2  -6  32   55.95   16.48
   2   6  32   59.97   17.26
   4  -6  32    2.96    7.48
   4   6  32    3.71    7.16
  -3  -7  32    2.97    7.83
  -3   7  32   12.15    8.59
   3   7 -32    2.56    9.93
  -1  -7  32    9.76   11.78
  -1   7  32    3.43    7.47
   1   7 -32   10.57   11.46
   1  -7  32    0.75    6.88
  -1   7 -32    6.76    9.17
   1   7  32   23.88   11.41
  -6   0  33   81.81   20.21
  -4   0  33   19.26    9.54
  -2   0  33  112.56   24.28
   0   0  33   16.05    9.89
   4   0  33    2.09    7.15
   7   1 -33    4.21    8.82
  -5  -1  33   52.30   17.63
  -5   1  33   30.22   12.90
  -3  -1  33   24.64   10.98
  -3   1  33   42.34   15.43
  -1  -1  33   47.20   16.06
  -1   1  33    3.26    7.89
   1   1  33   39.31   13.67
   3  -1  33   18.30   12.77
   3   1  33    3.79    9.02
   5  -1  33    6.80   10.11
   5   1  33   12.11   11.22
  -6  -2  33    9.49    8.70
   6   2 -33   11.00    8.48
  -4  -2  33   36.77   14.66
  -4   2  33   39.06   14.96
  -2  -2  33   24.66   10.83
  -2   2  33   17.69    8.53
   0  -2  33  124.25   24.98
   0   2  33  111.54   21.23
   2  -2  33    1.42    6.38
   2   2  33    1.76    8.54
   4  -2  33   99.81   21.70
   4   2  33   76.42   19.43
  -5  -3  33   22.24   13.51
   5   3 -33    3.68    9.91
  -5   3  33   11.15   10.30
  -3  -3  33   10.13   12.26
  -3   3  33   -3.43    4.66
  -1  -3  33   26.24   10.99
  -1   3  33   34.40   14.23
   1  -3  33   41.90   14.83
   1   3  33   14.53    9.50
   3  -3  33    6.33    9.59
   3   3  33   32.85   11.64
  -6  -4  33   60.79   20.20
   6   4 -33   72.00   21.64
  -4  -4  33    9.81    7.13
   4   4 -33    6.69    8.47
  -4   4  33    5.63    5.56
  -2  -4  33   19.63   11.71
  -2   4  33   16.55    9.65
   0  -4  33    8.10    9.68
   0   4  33    5.70    7.27
   2  -4  33   72.28   18.08
   2   4  33   69.46   17.40
   4  -4  33   14.74   10.18
   4   4  33   -5.92    6.78
  -5  -5  33    9.25   10.94
   5   5 -33   11.99   10.98
  -3  -5  33   16.69    9.79
   3   5 -33    0.51    9.10
  -3   5  33   19.55   10.54
  -1  -5  33   22.31   12.58
  -1   5  33    4.39    8.15
   1  -5  33    4.18   10.48
   1   5  33   10.37    9.92
   3  -5  33   39.20   14.57
   3   5  33    8.13    9.75
  -2  -6  33   13.31    8.57
   2   6 -33   15.38   10.32
  -2   6  33   12.69    7.71
   0  -6  33    0.43    8.13
   0   6  33    7.83    9.35
   0   6 -33    2.30    9.61
  -4   0  34  113.53   24.95
  -2   0  34   18.08    9.19
   0   0  34   25.39   12.21
   2   0  34   12.79    9.35
   4   0  34   25.89   13.03
  -5  -1  34   13.43    9.49
  -5   1  34   22.32   13.10
  -3  -1  34   45.94   14.97
  -1  -1  34   16.79   11.75
  -1   1  34   15.81   10.79
   1  -1  34   46.41   15.53
   1   1  34   11.04   10.83
   3  -1  34    6.55    9.47
   3   1  34   30.19   12.82
  -4  -2  34    1.19    6.15
  -4   2  34    9.57    8.21
  -2  -2  34   31.62   15.52
  -2   2  34   37.37   13.63
   0  -2  34   20.72    8.93
   0   2  34    2.21    7.33
   2  -2  34    8.90   11.15
   2   2  34   26.30   11.39
  -3  -3  34    6.42    9.30
  -3   3  34    5.88    8.54
  -1  -3  34   28.20   13.40
  -1   3  34    7.39    8.81
   1  -3  34    4.99   10.50
   1   3  34   29.72   12.76
   3  -3  34   14.48   11.72
   3   3  34    8.15    9.94
  -2  -4  34    3.95    7.67
  -2   4  34   10.83    8.22
   0  -4  34   72.48   20.11
   0   4  34   66.50   18.35
  -2   0  35   65.90   19.24
   0   0  35    2.46    7.75
  -1  -1  35   24.80   14.49
  -1   1  35   18.60   12.04
   1  -1  35    4.45    8.50
   1   1  35   25.09   13.38
   0  -2  35   69.06   19.28
   0   2  35  106.81   23.80
   0   0   0    0.00    0.00


_computing_structure_solution     'SHELXT 2018/2 (Sheldrick, 2018)'
_computing_structure_solution     'SHELXT 2018/2 (Sheldrick, 2018)'
;
_shelx_hkl_checksum                65288
# end Validation Reply Form
_olex2_submission_special_instructions  'No special instructions were received'
# start Validation Reply Form
_vrf_PLAT241_mo_ate_euk_300k_0m_a
;
PROBLEM: High   'MainMol' Ueq as Compared to Neighbors of         K1 Check 
RESPONSE: Due to thermal disorder.
;
