
#======================================================================
# CRYSTAL DATA
#----------------------------------------------------------------------
data_VESTA_phase_1

_chemical_name_common                  'ATE_EuK\(2)                           '
_cell_length_a                         14.092480
_cell_length_b                         14.169379
_cell_length_c                         26.144573
_cell_angle_alpha                      90.197830
_cell_angle_beta                       90.963074
_cell_angle_gamma                      89.254730
_cell_volume                           5219.386176
_space_group_name_H-M_alt              'P 1'
_space_group_IT_number                 1

loop_
_space_group_symop_operation_xyz
   'x, y, z'

loop_
   _atom_site_label
   _atom_site_occupancy
   _atom_site_fract_x
   _atom_site_fract_y
   _atom_site_fract_z
   _atom_site_adp_type
   _atom_site_U_iso_or_equiv
   _atom_site_type_symbol
   O1         1.0     0.575121     0.663973     0.010043    Uiso  ? O
   O2         1.0     0.525117     0.422854     0.910864    Uiso  ? O
   O3         1.0     0.977445     0.576379     0.104378    Uiso  ? O
   O4         1.0     0.827821     0.765267     0.328946    Uiso  ? O
   O5         1.0     0.950804     0.775724     0.497792    Uiso  ? O
   O6         1.0     0.759917     0.832800     0.395088    Uiso  ? O
   O7         1.0     0.759304     0.545380     0.500932    Uiso  ? O
   O8         1.0     0.745462     0.680522     0.382079    Uiso  ? O
   O9         1.0     0.075108     0.163964     0.010049    Uiso  ? O
   O10        1.0     0.025094     0.922836     0.910877    Uiso  ? O
   O11        1.0     0.477458     0.076352     0.104383    Uiso  ? O
   O12        1.0     0.324939     0.263713     0.328745    Uiso  ? O
   O13        1.0     0.450515     0.274005     0.497780    Uiso  ? O
   O14        1.0     0.258413     0.332269     0.394995    Uiso  ? O
   O15        1.0     0.259611     0.045385     0.500634    Uiso  ? O
   O16        1.0     0.250658     0.178631     0.385175    Uiso  ? O
   O17        1.0     0.424563     0.665189     0.989848    Uiso  ? O
   O18        1.0     0.474900     0.423276     0.089331    Uiso  ? O
   O19        1.0     0.022075     0.579034     0.895861    Uiso  ? O
   O20        1.0     0.082779     0.761917     0.453473    Uiso  ? O
   O21        1.0     0.184985     0.761738     0.661900    Uiso  ? O
   O22        1.0     0.171736     0.594012     0.490545    Uiso  ? O
   O23        1.0     0.087753     0.747837     0.536281    Uiso  ? O
   O24        1.0     0.229443     0.837012     0.592653    Uiso  ? O
   O25        1.0     0.320510     0.586786     0.512165    Uiso  ? O
   O26        1.0     0.257749     0.686202     0.599537    Uiso  ? O
   O27        1.0     0.924554     0.165184     0.989849    Uiso  ? O
   O28        1.0     0.974897     0.923266     0.089348    Uiso  ? O
   O29        1.0     0.522125     0.079001     0.895864    Uiso  ? O
   O30        1.0     0.582864     0.261707     0.453640    Uiso  ? O
   O31        1.0     0.685142     0.261743     0.661900    Uiso  ? O
   O32        1.0     0.671567     0.093981     0.490492    Uiso  ? O
   O33        1.0     0.587609     0.247768     0.536420    Uiso  ? O
   O34        1.0     0.729389     0.337011     0.592609    Uiso  ? O
   O35        1.0     0.820375     0.086954     0.512072    Uiso  ? O
   O36        1.0     0.757918     0.186250     0.599527    Uiso  ? O
   O37        1.0     0.424897     0.336042     0.989969    Uiso  ? O
   O38        1.0     0.474915     0.577165     0.089144    Uiso  ? O
   O39        1.0     0.022529     0.423667     0.895634    Uiso  ? O
   O40        1.0     0.176176     0.237793     0.671013    Uiso  ? O
   O41        1.0     0.049950     0.227404     0.502695    Uiso  ? O
   O42        1.0     0.242338     0.168037     0.604975    Uiso  ? O
   O43        1.0     0.240956     0.454841     0.499237    Uiso  ? O
   O44        1.0     0.245645     0.322351     0.612525    Uiso  ? O
   O45        1.0     0.924886     0.836034     0.989978    Uiso  ? O
   O46        1.0     0.974906     0.077155     0.089157    Uiso  ? O
   O47        1.0     0.522548     0.923635     0.895639    Uiso  ? O
   O48        1.0     0.674586     0.736754     0.670897    Uiso  ? O
   O49        1.0     0.549784     0.726080     0.502613    Uiso  ? O
   O50        1.0     0.741493     0.667958     0.604808    Uiso  ? O
   O51        1.0     0.741108     0.954906     0.498923    Uiso  ? O
   O52        1.0     0.748884     0.821691     0.614386    Uiso  ? O
   O53        1.0     0.575454     0.334829     0.010167    Uiso  ? O
   O54        1.0     0.525115     0.576743     0.910677    Uiso  ? O
   O55        1.0     0.977877     0.421014     0.104175    Uiso  ? O
   O56        1.0     0.917423     0.239137     0.546726    Uiso  ? O
   O57        1.0     0.815392     0.237735     0.338075    Uiso  ? O
   O58        1.0     0.828592     0.406271     0.509700    Uiso  ? O
   O59        1.0     0.912713     0.252192     0.463900    Uiso  ? O
   O60        1.0     0.770976     0.163135     0.407545    Uiso  ? O
   O61        1.0     0.679931     0.413395     0.487808    Uiso  ? O
   O62        1.0     0.741885     0.313729     0.400013    Uiso  ? O
   O63        1.0     0.075444     0.834826     0.010171    Uiso  ? O
   O64        1.0     0.025101     0.076724     0.910686    Uiso  ? O
   O65        1.0     0.477919     0.920987     0.104178    Uiso  ? O
   O66        1.0     0.417378     0.738775     0.546670    Uiso  ? O
   O67        1.0     0.315413     0.737590     0.338039    Uiso  ? O
   O68        1.0     0.328605     0.906187     0.509637    Uiso  ? O
   O69        1.0     0.412740     0.752254     0.463847    Uiso  ? O
   O70        1.0     0.270757     0.663576     0.407647    Uiso  ? O
   O71        1.0     0.179949     0.913492     0.487773    Uiso  ? O
   O72        1.0     0.241925     0.814166     0.399776    Uiso  ? O
   O73        1.0     0.657494     0.499181     0.052455    Uiso  ? O
   O74        1.0     0.675856     0.498905     0.969833    Uiso  ? O
   O75        1.0     0.567917     0.498513     0.841508    Uiso  ? O
   O76        1.0     0.801730     0.500615     0.021294    Uiso  ? O
   O77        1.0     0.893686     0.499606     0.160776    Uiso  ? O
   O78        1.0     0.157481     0.999170     0.052457    Uiso  ? O
   O79        1.0     0.175851     0.998898     0.969836    Uiso  ? O
   O80        1.0     0.067870     0.998486     0.841514    Uiso  ? O
   O81        1.0     0.301720     0.000602     0.021301    Uiso  ? O
   O82        1.0     0.393725     0.999560     0.160785    Uiso  ? O
   O83        1.0     0.342508     0.500839     0.947561    Uiso  ? O
   O84        1.0     0.324170     0.501113     0.030185    Uiso  ? O
   O85        1.0     0.432106     0.501512     0.158498    Uiso  ? O
   O86        1.0     0.198281     0.499402     0.978734    Uiso  ? O
   O87        1.0     0.106213     0.500484     0.839221    Uiso  ? O
   O88        1.0     0.842499     0.000827     0.947564    Uiso  ? O
   O89        1.0     0.824169     0.001106     0.030189    Uiso  ? O
   O90        1.0     0.932154     0.001504     0.158524    Uiso  ? O
   O91        1.0     0.698275     0.999386     0.978742    Uiso  ? O
   O92        1.0     0.606303     0.000431     0.839249    Uiso  ? O
   O93        1.0     0.499399     0.799898    -0.000300    Uiso  ? O
   O94        1.0     0.999396     0.299891    -0.000303    Uiso  ? O
   O95        1.0     0.500608     0.200119     1.000344    Uiso  ? O
   O96        1.0     0.000606     0.700113     1.000341    Uiso  ? O
   N1         1.0     0.776572     0.759548     0.368021    Uiso  ? N
   N2         1.0     0.568105     0.579946     0.312104    Uiso  ? N
   N3         1.0     0.820314     0.753565     0.211686    Uiso  ? N
   N4         1.0     0.675099     0.841572     0.190538    Uiso  ? N
   N5         1.0     0.755972     0.751031     0.124138    Uiso  ? N
   N6         1.0     0.673999     0.669305     0.192746    Uiso  ? N
   N7         1.0     0.077229     0.587606     0.303246    Uiso  ? N
   N8         1.0     0.276446     0.258207     0.368854    Uiso  ? N
   N9         1.0     0.068470     0.080295     0.312071    Uiso  ? N
   N10        1.0     0.320276     0.253543     0.211667    Uiso  ? N
   N11        1.0     0.175076     0.341570     0.190517    Uiso  ? N
   N12        1.0     0.255959     0.251034     0.124118    Uiso  ? N
   N13        1.0     0.173952     0.169299     0.192703    Uiso  ? N
   N14        1.0     0.577379     0.087474     0.303186    Uiso  ? N
   N15        1.0     0.244470     0.542135     0.500647    Uiso  ? N
   N16        1.0     0.037720     0.761938     0.495212    Uiso  ? N
   N17        1.0     0.223990     0.761567     0.619014    Uiso  ? N
   N18        1.0     0.425070     0.589596     0.694870    Uiso  ? N
   N19        1.0     0.179894     0.754222     0.787706    Uiso  ? N
   N20        1.0     0.324009     0.840229     0.809390    Uiso  ? N
   N21        1.0     0.243394     0.751669     0.875609    Uiso  ? N
   N22        1.0     0.326859     0.667985     0.807442    Uiso  ? N
   N23        1.0     0.925246     0.585060     0.695549    Uiso  ? N
   N24        1.0     0.744405     0.042207     0.500496    Uiso  ? N
   N25        1.0     0.537589     0.261216     0.495301    Uiso  ? N
   N26        1.0     0.724083     0.261577     0.618999    Uiso  ? N
   N27        1.0     0.925296     0.089742     0.694835    Uiso  ? N
   N28        1.0     0.679906     0.254205     0.787702    Uiso  ? N
   N29        1.0     0.824011     0.340228     0.809386    Uiso  ? N
   N30        1.0     0.743399     0.251666     0.875607    Uiso  ? N
   N31        1.0     0.826876     0.167981     0.807446    Uiso  ? N
   N32        1.0     0.425338     0.084969     0.695723    Uiso  ? N
   N33        1.0     0.223375     0.242755     0.630400    Uiso  ? N
   N34        1.0     0.430933     0.419539     0.688056    Uiso  ? N
   N35        1.0     0.179699     0.246495     0.788340    Uiso  ? N
   N36        1.0     0.324894     0.158444     0.809460    Uiso  ? N
   N37        1.0     0.244032     0.248937     0.875889    Uiso  ? N
   N38        1.0     0.326039     0.330714     0.807326    Uiso  ? N
   N39        1.0     0.922668     0.412515     0.696923    Uiso  ? N
   N40        1.0     0.723280     0.742137     0.630830    Uiso  ? N
   N41        1.0     0.931395     0.919716     0.687917    Uiso  ? N
   N42        1.0     0.679681     0.746496     0.788311    Uiso  ? N
   N43        1.0     0.824881     0.658451     0.809429    Uiso  ? N
   N44        1.0     0.744031     0.748953     0.875859    Uiso  ? N
   N45        1.0     0.826020     0.830720     0.807281    Uiso  ? N
   N46        1.0     0.422762     0.912408     0.696900    Uiso  ? N
   N47        1.0     0.755882     0.458063     0.499480    Uiso  ? N
   N48        1.0     0.962778     0.239535     0.505076    Uiso  ? N
   N49        1.0     0.776123     0.238313     0.380915    Uiso  ? N
   N50        1.0     0.574562     0.409936     0.305077    Uiso  ? N
   N51        1.0     0.820105     0.245767     0.212285    Uiso  ? N
   N52        1.0     0.675989     0.159762     0.190596    Uiso  ? N
   N53        1.0     0.756603     0.248340     0.124383    Uiso  ? N
   N54        1.0     0.673140     0.332005     0.192558    Uiso  ? N
   N55        1.0     0.074683     0.415010     0.304090    Uiso  ? N
   N56        1.0     0.255982     0.958065     0.499348    Uiso  ? N
   N57        1.0     0.462721     0.738959     0.505003    Uiso  ? N
   N58        1.0     0.276066     0.738566     0.380859    Uiso  ? N
   N59        1.0     0.074774     0.910262     0.305143    Uiso  ? N
   N60        1.0     0.320099     0.745774     0.212282    Uiso  ? N
   N61        1.0     0.175976     0.659777     0.190594    Uiso  ? N
   N62        1.0     0.256592     0.748352     0.124382    Uiso  ? N
   N63        1.0     0.173134     0.832019     0.192559    Uiso  ? N
   N64        1.0     0.574765     0.914904     0.304302    Uiso  ? N
   N65        1.0     0.714014     0.499562     0.014676    Uiso  ? N
   N66        1.0     0.949775     0.498995     0.123285    Uiso  ? N
   N67        1.0     0.539698     0.499404     0.886528    Uiso  ? N
   N68        1.0     0.453264     0.440588     0.369862    Uiso  ? N
   N69        1.0     0.432637     0.496249     0.280569    Uiso  ? N
   N70        1.0     0.009765     0.503963     0.376103    Uiso  ? N
   N71        1.0     0.927802     0.505939     0.292189    Uiso  ? N
   N72        1.0     0.214005     0.999552     0.014680    Uiso  ? N
   N73        1.0     0.449805     0.998964     0.123291    Uiso  ? N
   N74        1.0     0.039670     0.999383     0.886537    Uiso  ? N
   N75        1.0     0.953285     0.940596     0.369905    Uiso  ? N
   N76        1.0     0.932817     0.996420     0.280648    Uiso  ? N
   N77        1.0     0.509591     0.004240     0.376091    Uiso  ? N
   N78        1.0     0.427946     0.005833     0.292090    Uiso  ? N
   N79        1.0     0.285999     0.500456     0.985345    Uiso  ? N
   N80        1.0     0.050170     0.501064     0.876728    Uiso  ? N
   N81        1.0     0.460326     0.500616     0.113477    Uiso  ? N
   N82        1.0     0.546537     0.559417     0.630061    Uiso  ? N
   N83        1.0     0.567057     0.503439     0.719250    Uiso  ? N
   N84        1.0     0.990756     0.495372     0.623972    Uiso  ? N
   N85        1.0     0.072047     0.494264     0.708075    Uiso  ? N
   N86        1.0     0.785993     0.000444     0.985350    Uiso  ? N
   N87        1.0     0.550222     0.001026     0.876741    Uiso  ? N
   N88        1.0     0.960339     0.000608     0.113495    Uiso  ? N
   N89        1.0     0.046789     0.059416     0.630087    Uiso  ? N
   N90        1.0     0.067218     0.003522     0.719317    Uiso  ? N
   N91        1.0     0.490652     0.995546     0.623992    Uiso  ? N
   N92        1.0     0.572159     0.994128     0.708030    Uiso  ? N
   N93        1.0     0.499704     0.712425     0.999865    Uiso  ? N
   N94        1.0     0.999696     0.212419     0.999865    Uiso  ? N
   N95        1.0     0.500310     0.287591     0.000159    Uiso  ? N
   N96        1.0     0.000302     0.787585     0.000163    Uiso  ? N
   H1         1.0     0.350316     0.458423     0.424302    Uiso  ? H
   H2         1.0     0.429309     0.626291     0.428808    Uiso  ? H
   H3         1.0     0.580725     0.523129     0.472884    Uiso  ? H
   H4         1.0     0.511178     0.589327     0.237079    Uiso  ? H
   H5         1.0     0.440232     0.644817     0.285895    Uiso  ? H
   H6         1.0     0.331925     0.429493     0.324927    Uiso  ? H
   H7         1.0     0.511410     0.674730     0.363876    Uiso  ? H
   H8         1.0     0.618213     0.603330     0.386244    Uiso  ? H
   H9         1.0     0.804412     0.605877     0.215900    Uiso  ? H
   H10        1.0     0.746305     0.673449     0.264678    Uiso  ? H
   H11        1.0     0.817026     0.814291     0.060012    Uiso  ? H
   H12        1.0     0.715537     0.741544     0.046433    Uiso  ? H
   H13        1.0     0.828702     0.688251     0.062751    Uiso  ? H
   H14        1.0     0.886047     0.686023     0.149339    Uiso  ? H
   H15        1.0     0.886287     0.813801     0.148261    Uiso  ? H
   H16        1.0     0.805657     0.901953     0.213520    Uiso  ? H
   H17        1.0     0.744664     0.839331     0.262462    Uiso  ? H
   H18        1.0     0.742484     0.900666     0.127237    Uiso  ? H
   H19        1.0     0.633290     0.840670     0.112917    Uiso  ? H
   H20        1.0     0.601809     0.760562     0.243396    Uiso  ? H
   H21        1.0     0.554157     0.757538     0.179218    Uiso  ? H
   H22        1.0     0.632885     0.665298     0.114678    Uiso  ? H
   H23        1.0     0.740727     0.602017     0.130699    Uiso  ? H
   H24        1.0     0.020773     0.651174     0.370751    Uiso  ? H
   H25        1.0     0.133428     0.589603     0.378419    Uiso  ? H
   H26        1.0     0.872946     0.446282     0.357655    Uiso  ? H
   H27        1.0     0.933174     0.528083     0.445026    Uiso  ? H
   H28        1.0     0.055268     0.559164     0.447411    Uiso  ? H
   H29        1.0     0.905880     0.367282     0.425302    Uiso  ? H
   H30        1.0     0.943980     0.652757     0.287354    Uiso  ? H
   H31        1.0     0.993572     0.585240     0.235510    Uiso  ? H
   H32        1.0     0.850712     0.959485     0.424373    Uiso  ? H
   H33        1.0     0.929805     0.126700     0.428759    Uiso  ? H
   H34        1.0     0.081001     0.023609     0.473012    Uiso  ? H
   H35        1.0     0.011156     0.089621     0.237178    Uiso  ? H
   H36        1.0     0.940370     0.144926     0.286121    Uiso  ? H
   H37        1.0     0.832102     0.929661     0.324973    Uiso  ? H
   H38        1.0     0.012461     0.175956     0.363616    Uiso  ? H
   H39        1.0     0.120975     0.106381     0.385498    Uiso  ? H
   H40        1.0     0.304374     0.105850     0.215832    Uiso  ? H
   H41        1.0     0.246287     0.173431     0.264618    Uiso  ? H
   H42        1.0     0.317029     0.314294     0.060000    Uiso  ? H
   H43        1.0     0.215538     0.241550     0.046416    Uiso  ? H
   H44        1.0     0.328697     0.188252     0.062739    Uiso  ? H
   H45        1.0     0.386031     0.186021     0.149323    Uiso  ? H
   H46        1.0     0.386269     0.313800     0.148253    Uiso  ? H
   H47        1.0     0.305631     0.401934     0.213506    Uiso  ? H
   H48        1.0     0.244643     0.339298     0.262457    Uiso  ? H
   H49        1.0     0.242478     0.400668     0.127227    Uiso  ? H
   H50        1.0     0.133283     0.340674     0.112896    Uiso  ? H
   H51        1.0     0.101798     0.260575     0.243371    Uiso  ? H
   H52        1.0     0.054119     0.257554     0.179200    Uiso  ? H
   H53        1.0     0.132858     0.165327     0.114634    Uiso  ? H
   H54        1.0     0.240683     0.102021     0.130664    Uiso  ? H
   H55        1.0     0.520764     0.151398     0.370603    Uiso  ? H
   H56        1.0     0.633426     0.089633     0.378393    Uiso  ? H
   H57        1.0     0.372875     0.946452     0.357576    Uiso  ? H
   H58        1.0     0.432126     0.028407     0.444745    Uiso  ? H
   H59        1.0     0.553967     0.060692     0.447313    Uiso  ? H
   H60        1.0     0.406035     0.867439     0.425388    Uiso  ? H
   H61        1.0     0.444170     0.152628     0.287223    Uiso  ? H
   H62        1.0     0.493812     0.085069     0.235405    Uiso  ? H
   H63        1.0     0.560318     0.424790     0.566984    Uiso  ? H
   H64        1.0     0.539366     0.609697     0.556081    Uiso  ? H
   H65        1.0     0.435132     0.426761     0.530890    Uiso  ? H
   H66        1.0     0.478515     0.576887     0.770413    Uiso  ? H
   H67        1.0     0.546708     0.649697     0.728930    Uiso  ? H
   H68        1.0     0.640261     0.451209     0.655282    Uiso  ? H
   H69        1.0     0.476369     0.687736     0.642099    Uiso  ? H
   H70        1.0     0.403155     0.598226     0.615204    Uiso  ? H
   H71        1.0     0.197577     0.606267     0.783809    Uiso  ? H
   H72        1.0     0.257081     0.672084     0.735349    Uiso  ? H
   H73        1.0     0.181069     0.815776     0.939875    Uiso  ? H
   H74        1.0     0.283510     0.741802     0.953315    Uiso  ? H
   H75        1.0     0.171218     0.689842     0.936686    Uiso  ? H
   H76        1.0     0.114562     0.688148     0.849938    Uiso  ? H
   H77        1.0     0.112587     0.815929     0.851152    Uiso  ? H
   H78        1.0     0.193161     0.902511     0.786023    Uiso  ? H
   H79        1.0     0.255666     0.838875     0.737207    Uiso  ? H
   H80        1.0     0.255507     0.901135     0.872611    Uiso  ? H
   H81        1.0     0.365151     0.839387     0.887088    Uiso  ? H
   H82        1.0     0.398278     0.756644     0.756712    Uiso  ? H
   H83        1.0     0.445824     0.754471     0.820969    Uiso  ? H
   H84        1.0     0.367391     0.664483     0.885513    Uiso  ? H
   H85        1.0     0.260514     0.602413     0.869350    Uiso  ? H
   H86        1.0     0.980386     0.644675     0.628841    Uiso  ? H
   H87        1.0     0.868790     0.586957     0.620436    Uiso  ? H
   H88        1.0     0.122492     0.425626     0.641191    Uiso  ? H
   H89        1.0     0.134949     0.605980     0.585579    Uiso  ? H
   H90        1.0     0.976052     0.559326     0.550602    Uiso  ? H
   H91        1.0     0.082109     0.312982     0.588077    Uiso  ? H
   H92        1.0     0.060403     0.642992     0.710321    Uiso  ? H
   H93        1.0     0.009144     0.582276     0.763113    Uiso  ? H
   H94        1.0     0.060171     0.925015     0.566877    Uiso  ? H
   H95        1.0     0.039911     0.110047     0.556146    Uiso  ? H
   H96        1.0     0.935355     0.927439     0.530868    Uiso  ? H
   H97        1.0     0.978516     0.076925     0.770417    Uiso  ? H
   H98        1.0     0.046840     0.149772     0.729016    Uiso  ? H
   H99        1.0     0.140612     0.951352     0.655395    Uiso  ? H
   H100       1.0     0.977038     0.187923     0.642163    Uiso  ? H
   H101       1.0     0.903561     0.098692     0.615174    Uiso  ? H
   H102       1.0     0.697604     0.106250     0.783813    Uiso  ? H
   H103       1.0     0.757104     0.172061     0.735350    Uiso  ? H
   H104       1.0     0.681070     0.315777     0.939871    Uiso  ? H
   H105       1.0     0.783511     0.241805     0.953314    Uiso  ? H
   H106       1.0     0.671221     0.189842     0.936684    Uiso  ? H
   H107       1.0     0.614571     0.188139     0.849936    Uiso  ? H
   H108       1.0     0.612592     0.315919     0.851144    Uiso  ? H
   H109       1.0     0.693154     0.402494     0.786016    Uiso  ? H
   H110       1.0     0.755673     0.338864     0.737202    Uiso  ? H
   H111       1.0     0.755507     0.401132     0.872608    Uiso  ? H
   H112       1.0     0.865153     0.339387     0.887085    Uiso  ? H
   H113       1.0     0.898287     0.256633     0.756712    Uiso  ? H
   H114       1.0     0.945832     0.254478     0.820969    Uiso  ? H
   H115       1.0     0.867397     0.164485     0.885517    Uiso  ? H
   H116       1.0     0.760523     0.102412     0.869351    Uiso  ? H
   H117       1.0     0.480305     0.144792     0.629031    Uiso  ? H
   H118       1.0     0.368680     0.087127     0.620675    Uiso  ? H
   H119       1.0     0.622388     0.925668     0.641016    Uiso  ? H
   H120       1.0     0.635292     0.105811     0.585488    Uiso  ? H
   H121       1.0     0.476022     0.060239     0.550823    Uiso  ? H
   H122       1.0     0.583268     0.814051     0.586998    Uiso  ? H
   H123       1.0     0.560517     0.142861     0.710408    Uiso  ? H
   H124       1.0     0.509454     0.082000     0.763207    Uiso  ? H
   H125       1.0     0.649558     0.541610     0.575686    Uiso  ? H
   H126       1.0     0.570163     0.373483     0.571707    Uiso  ? H
   H127       1.0     0.419633     0.477104     0.527339    Uiso  ? H
   H128       1.0     0.488861     0.410229     0.762740    Uiso  ? H
   H129       1.0     0.559256     0.354956     0.713640    Uiso  ? H
   H130       1.0     0.667850     0.570278     0.674978    Uiso  ? H
   H131       1.0     0.486325     0.323635     0.636387    Uiso  ? H
   H132       1.0     0.376318     0.391703     0.615212    Uiso  ? H
   H133       1.0     0.195621     0.394194     0.784215    Uiso  ? H
   H134       1.0     0.253705     0.326615     0.735422    Uiso  ? H
   H135       1.0     0.182969     0.185653     0.940005    Uiso  ? H
   H136       1.0     0.284460     0.258397     0.953592    Uiso  ? H
   H137       1.0     0.171301     0.311697     0.937275    Uiso  ? H
   H138       1.0     0.113956     0.313968     0.850702    Uiso  ? H
   H139       1.0     0.113719     0.186187     0.851747    Uiso  ? H
   H140       1.0     0.194339     0.098102     0.786461    Uiso  ? H
   H141       1.0     0.255301     0.160797     0.737507    Uiso  ? H
   H142       1.0     0.257511     0.099303     0.872749    Uiso  ? H
   H143       1.0     0.366710     0.159289     0.887079    Uiso  ? H
   H144       1.0     0.398178     0.239491     0.756628    Uiso  ? H
   H145       1.0     0.445866     0.242437     0.820798    Uiso  ? H
   H146       1.0     0.367139     0.334630     0.885395    Uiso  ? H
   H147       1.0     0.259321     0.397955     0.869376    Uiso  ? H
   H148       1.0     0.979482     0.348268     0.629687    Uiso  ? H
   H149       1.0     0.866918     0.410022     0.621659    Uiso  ? H
   H150       1.0     0.127245     0.553507     0.642588    Uiso  ? H
   H151       1.0     0.068681     0.470964     0.555492    Uiso  ? H
   H152       1.0     0.947034     0.438115     0.552840    Uiso  ? H
   H153       1.0     0.093616     0.632463     0.574623    Uiso  ? H
   H154       1.0     0.055852     0.347485     0.713048    Uiso  ? H
   H155       1.0     0.006040     0.415158     0.764773    Uiso  ? H
   H156       1.0     0.150076     0.041926     0.575785    Uiso  ? H
   H157       1.0     0.070694     0.873813     0.571562    Uiso  ? H
   H158       1.0     0.919486     0.977725     0.527521    Uiso  ? H
   H159       1.0     0.988836     0.910340     0.762763    Uiso  ? H
   H160       1.0     0.059493     0.854998     0.713786    Uiso  ? H
   H161       1.0     0.168041     0.070443     0.675094    Uiso  ? H
   H162       1.0     0.987441     0.824326     0.636212    Uiso  ? H
   H163       1.0     0.878648     0.893642     0.614524    Uiso  ? H
   H164       1.0     0.695610     0.894193     0.784154    Uiso  ? H
   H165       1.0     0.753692     0.826612     0.735367    Uiso  ? H
   H166       1.0     0.682980     0.685673     0.939982    Uiso  ? H
   H167       1.0     0.784473     0.758417     0.953562    Uiso  ? H
   H168       1.0     0.671311     0.811716     0.937251    Uiso  ? H
   H169       1.0     0.613955     0.813984     0.850676    Uiso  ? H
   H170       1.0     0.613713     0.686204     0.851726    Uiso  ? H
   H171       1.0     0.694320     0.598105     0.786437    Uiso  ? H
   H172       1.0     0.755281     0.660785     0.737485    Uiso  ? H
   H173       1.0     0.757506     0.599318     0.872726    Uiso  ? H
   H174       1.0     0.866709     0.659300     0.887048    Uiso  ? H
   H175       1.0     0.898181     0.739505     0.756597    Uiso  ? H
   H176       1.0     0.945844     0.742452     0.820773    Uiso  ? H
   H177       1.0     0.867133     0.834660     0.885348    Uiso  ? H
   H178       1.0     0.759304     0.897971     0.869334    Uiso  ? H
   H179       1.0     0.479452     0.848400     0.629571    Uiso  ? H
   H180       1.0     0.366884     0.910092     0.621664    Uiso  ? H
   H181       1.0     0.627232     0.053545     0.642561    Uiso  ? H
   H182       1.0     0.568012     0.971070     0.555346    Uiso  ? H
   H183       1.0     0.446113     0.939226     0.552781    Uiso  ? H
   H184       1.0     0.593852     0.132467     0.574787    Uiso  ? H
   H185       1.0     0.555962     0.847339     0.712957    Uiso  ? H
   H186       1.0     0.506210     0.914968     0.764716    Uiso  ? H
   H187       1.0     0.440216     0.575023     0.433048    Uiso  ? H
   H188       1.0     0.460519     0.390278     0.443859    Uiso  ? H
   H189       1.0     0.565049     0.573490     0.469608    Uiso  ? H
   H190       1.0     0.521356     0.422801     0.229502    Uiso  ? H
   H191       1.0     0.452987     0.349982     0.270904    Uiso  ? H
   H192       1.0     0.359431     0.548652     0.344510    Uiso  ? H
   H193       1.0     0.522694     0.311870     0.357874    Uiso  ? H
   H194       1.0     0.596425     0.401038     0.384713    Uiso  ? H
   H195       1.0     0.802412     0.393721     0.216190    Uiso  ? H
   H196       1.0     0.742926     0.327890     0.264654    Uiso  ? H
   H197       1.0     0.818928     0.184245     0.060114    Uiso  ? H
   H198       1.0     0.716488     0.258223     0.046677    Uiso  ? H
   H199       1.0     0.828781     0.310179     0.063310    Uiso  ? H
   H200       1.0     0.885437     0.311852     0.150056    Uiso  ? H
   H201       1.0     0.887410     0.184074     0.148834    Uiso  ? H
   H202       1.0     0.806836     0.097480     0.213951    Uiso  ? H
   H203       1.0     0.744336     0.161107     0.262779    Uiso  ? H
   H204       1.0     0.744485     0.098876     0.127367    Uiso  ? H
   H205       1.0     0.634844     0.160631     0.112898    Uiso  ? H
   H206       1.0     0.601728     0.243347     0.243283    Uiso  ? H
   H207       1.0     0.554173     0.245524     0.179027    Uiso  ? H
   H208       1.0     0.632611     0.335535     0.114487    Uiso  ? H
   H209       1.0     0.739492     0.397593     0.130657    Uiso  ? H
   H210       1.0     0.019981     0.354779     0.370731    Uiso  ? H
   H211       1.0     0.131676     0.412314     0.379075    Uiso  ? H
   H212       1.0     0.878117     0.574180     0.359426    Uiso  ? H
   H213       1.0     0.864327     0.393888     0.414688    Uiso  ? H
   H214       1.0     0.024708     0.438295     0.448985    Uiso  ? H
   H215       1.0     0.915107     0.685197     0.413815    Uiso  ? H
   H216       1.0     0.939421     0.357206     0.289554    Uiso  ? H
   H217       1.0     0.990133     0.418356     0.236753    Uiso  ? H
   H218       1.0     0.940575     0.075391     0.432942    Uiso  ? H
   H219       1.0     0.960562     0.890861     0.443985    Uiso  ? H
   H220       1.0     0.065134     0.073854     0.469485    Uiso  ? H
   H221       1.0     0.021555     0.923036     0.229563    Uiso  ? H
   H222       1.0     0.953249     0.850162     0.270961    Uiso  ? H
   H223       1.0     0.859608     0.048812     0.344593    Uiso  ? H
   H224       1.0     0.023321     0.812139     0.357881    Uiso  ? H
   H225       1.0     0.096607     0.901536     0.384795    Uiso  ? H
   H226       1.0     0.302414     0.893729     0.216191    Uiso  ? H
   H227       1.0     0.242930     0.827894     0.264655    Uiso  ? H
   H228       1.0     0.318920     0.684257     0.060114    Uiso  ? H
   H229       1.0     0.216477     0.758231     0.046676    Uiso  ? H
   H230       1.0     0.328769     0.810191     0.063309    Uiso  ? H
   H231       1.0     0.385426     0.811865     0.150054    Uiso  ? H
   H232       1.0     0.387400     0.684085     0.148829    Uiso  ? H
   H233       1.0     0.306815     0.597484     0.213948    Uiso  ? H
   H234       1.0     0.244332     0.661119     0.262777    Uiso  ? H
   H235       1.0     0.244477     0.598886     0.127369    Uiso  ? H
   H236       1.0     0.134836     0.660638     0.112895    Uiso  ? H
   H237       1.0     0.101715     0.743349     0.243281    Uiso  ? H
   H238       1.0     0.054165     0.745542     0.179025    Uiso  ? H
   H239       1.0     0.132598     0.835545     0.114489    Uiso  ? H
   H240       1.0     0.239479     0.897606     0.130655    Uiso  ? H
   H241       1.0     0.519811     0.854951     0.370962    Uiso  ? H
   H242       1.0     0.631463     0.912558     0.379386    Uiso  ? H
   H243       1.0     0.377949     0.074335     0.359106    Uiso  ? H
   H244       1.0     0.364534     0.893792     0.414519    Uiso  ? H
   H245       1.0     0.524364     0.939613     0.449264    Uiso  ? H
   H246       1.0     0.418734     0.188662     0.411680    Uiso  ? H
   H247       1.0     0.439509     0.857098     0.289646    Uiso  ? H
   H248       1.0     0.490521     0.918022     0.236852    Uiso  ? H
   H249       1.0     0.656578     0.502724     0.263301    Uiso  ? H
   H250       1.0     0.688743     0.495371     0.330158    Uiso  ? H
   H251       1.0     0.196797     0.498345     0.310164    Uiso  ? H
   H252       1.0     0.139247     0.498224     0.248210    Uiso  ? H
   H253       1.0     0.156881     0.002804     0.263317    Uiso  ? H
   H254       1.0     0.189006     0.995556     0.330197    Uiso  ? H
   H255       1.0     0.696898     0.998274     0.310295    Uiso  ? H
   H256       1.0     0.639434     0.997781     0.248313    Uiso  ? H
   H257       1.0     0.342961     0.497400     0.736891    Uiso  ? H
   H258       1.0     0.310520     0.504526     0.670042    Uiso  ? H
   H259       1.0     0.803140     0.501670     0.689556    Uiso  ? H
   H260       1.0     0.860393     0.502473     0.751596    Uiso  ? H
   H261       1.0     0.843116     0.997325     0.736705    Uiso  ? H
   H262       1.0     0.810921     0.004540     0.669833    Uiso  ? H
   H263       1.0     0.303227     0.001626     0.689681    Uiso  ? H
   H264       1.0     0.360554     0.002158     0.751698    Uiso  ? H
   C1         1.0     0.484928     0.583517     0.276265    Uiso  ? C
   C2         1.0     0.565968     0.621385     0.356792    Uiso  ? C
   C3         1.0     0.763067     0.670296     0.223863    Uiso  ? C
   C4         1.0     0.780932     0.748656     0.069446    Uiso  ? C
   C5         1.0     0.846234     0.750875     0.158861    Uiso  ? C
   C6         1.0     0.763396     0.839377     0.221940    Uiso  ? C
   C7         1.0     0.697848     0.840539     0.137163    Uiso  ? C
   C8         1.0     0.619639     0.757155     0.202705    Uiso  ? C
   C9         1.0     0.696974     0.664608     0.139249    Uiso  ? C
   C10        1.0     0.064893     0.590646     0.357768    Uiso  ? C
   C11        1.0     0.983390     0.588251     0.277045    Uiso  ? C
   C12        1.0     0.985085     0.083694     0.276401    Uiso  ? C
   C13        1.0     0.067268     0.122888     0.356505    Uiso  ? C
   C14        1.0     0.263020     0.170258     0.223808    Uiso  ? C
   C15        1.0     0.280930     0.248661     0.069430    Uiso  ? C
   C16        1.0     0.346216     0.250870     0.158847    Uiso  ? C
   C17        1.0     0.263355     0.339370     0.221931    Uiso  ? C
   C18        1.0     0.197833     0.340543     0.137146    Uiso  ? C
   C19        1.0     0.119610     0.257162     0.202678    Uiso  ? C
   C20        1.0     0.196937     0.164619     0.139211    Uiso  ? C
   C21        1.0     0.564958     0.090731     0.357679    Uiso  ? C
   C22        1.0     0.483588     0.088112     0.276934    Uiso  ? C
   C23        1.0     0.505346     0.584715     0.731550    Uiso  ? C
   C24        1.0     0.458072     0.612307     0.644430    Uiso  ? C
   C25        1.0     0.238500     0.669870     0.775906    Uiso  ? C
   C26        1.0     0.218104     0.749764     0.930245    Uiso  ? C
   C27        1.0     0.153585     0.752450     0.840592    Uiso  ? C
   C28        1.0     0.236141     0.839203     0.777661    Uiso  ? C
   C29        1.0     0.300761     0.840192     0.862699    Uiso  ? C
   C30        1.0     0.380470     0.754719     0.797382    Uiso  ? C
   C31        1.0     0.303526     0.664291     0.860763    Uiso  ? C
   C32        1.0     0.937589     0.584634     0.640860    Uiso  ? C
   C33        1.0     0.019258     0.581141     0.721555    Uiso  ? C
   C34        1.0     0.005459     0.084789     0.731580    Uiso  ? C
   C35        1.0     0.958491     0.112505     0.644435    Uiso  ? C
   C36        1.0     0.738520     0.169855     0.775907    Uiso  ? C
   C37        1.0     0.718106     0.249765     0.930242    Uiso  ? C
   C38        1.0     0.653592     0.252439     0.840587    Uiso  ? C
   C39        1.0     0.736144     0.339191     0.777656    Uiso  ? C
   C40        1.0     0.800763     0.340190     0.862695    Uiso  ? C
   C41        1.0     0.880479     0.254719     0.797382    Uiso  ? C
   C42        1.0     0.803536     0.164290     0.860765    Uiso  ? C
   C43        1.0     0.437534     0.084718     0.641034    Uiso  ? C
   C44        1.0     0.519419     0.080972     0.721637    Uiso  ? C
   C45        1.0     0.514662     0.416229     0.723456    Uiso  ? C
   C46        1.0     0.431310     0.376343     0.643711    Uiso  ? C
   C47        1.0     0.236973     0.329790     0.776228    Uiso  ? C
   C48        1.0     0.219067     0.251287     0.930578    Uiso  ? C
   C49        1.0     0.153769     0.249124     0.841164    Uiso  ? C
   C50        1.0     0.236610     0.160673     0.778040    Uiso  ? C
   C51        1.0     0.302150     0.159434     0.862835    Uiso  ? C
   C52        1.0     0.380372     0.242858     0.797322    Uiso  ? C
   C53        1.0     0.303061     0.335359     0.860817    Uiso  ? C
   C54        1.0     0.935298     0.409008     0.642457    Uiso  ? C
   C55        1.0     0.016383     0.412016     0.723256    Uiso  ? C
   C56        1.0     0.014861     0.916285     0.723525    Uiso  ? C
   C57        1.0     0.932558     0.877251     0.643424    Uiso  ? C
   C58        1.0     0.736951     0.829778     0.776177    Uiso  ? C
   C59        1.0     0.719076     0.751307     0.930551    Uiso  ? C
   C60        1.0     0.653763     0.749138     0.841138    Uiso  ? C
   C61        1.0     0.736585     0.660680     0.778017    Uiso  ? C
   C62        1.0     0.802144     0.659448     0.862807    Uiso  ? C
   C63        1.0     0.880358     0.742869     0.797289    Uiso  ? C
   C64        1.0     0.803048     0.835378     0.860775    Uiso  ? C
   C65        1.0     0.435315     0.909067     0.642415    Uiso  ? C
   C66        1.0     0.516513     0.911864     0.723194    Uiso  ? C
   C67        1.0     0.494392     0.414933     0.268335    Uiso  ? C
   C68        1.0     0.541413     0.387248     0.355494    Uiso  ? C
   C69        1.0     0.761497     0.330115     0.224095    Uiso  ? C
   C70        1.0     0.781894     0.250257     0.069748    Uiso  ? C
   C71        1.0     0.846412     0.247551     0.159399    Uiso  ? C
   C72        1.0     0.763857     0.160785     0.222323    Uiso  ? C
   C73        1.0     0.699235     0.159817     0.137286    Uiso  ? C
   C74        1.0     0.619529     0.245270     0.202613    Uiso  ? C
   C75        1.0     0.696474     0.335716     0.139237    Uiso  ? C
   C76        1.0     0.062745     0.414907     0.358788    Uiso  ? C
   C77        1.0     0.980441     0.419160     0.278346    Uiso  ? C
   C78        1.0     0.994600     0.915145     0.268395    Uiso  ? C
   C79        1.0     0.041711     0.887499     0.355557    Uiso  ? C
   C80        1.0     0.261496     0.830123     0.224095    Uiso  ? C
   C81        1.0     0.281883     0.750268     0.069746    Uiso  ? C
   C82        1.0     0.346403     0.747562     0.159396    Uiso  ? C
   C83        1.0     0.263845     0.660795     0.222320    Uiso  ? C
   C84        1.0     0.199225     0.659828     0.137284    Uiso  ? C
   C85        1.0     0.119520     0.745284     0.202612    Uiso  ? C
   C86        1.0     0.196464     0.835728     0.139237    Uiso  ? C
   C87        1.0     0.562613     0.915036     0.359003    Uiso  ? C
   C88        1.0     0.480620     0.918985     0.278428    Uiso  ? C
   C89        1.0     0.418981     0.428195     0.415101    Uiso  ? C
   C90        1.0     0.388475     0.481863     0.329371    Uiso  ? C
   C91        1.0     0.629665     0.495785     0.302324    Uiso  ? C
   C92        1.0     0.912793     0.508284     0.346514    Uiso  ? C
   C93        1.0     0.004448     0.507481     0.433305    Uiso  ? C
   C94        1.0     0.128130     0.499766     0.289642    Uiso  ? C
   C95        1.0     0.919277     0.929008     0.415192    Uiso  ? C
   C96        1.0     0.888620     0.982049     0.329413    Uiso  ? C
   C97        1.0     0.129949     0.996047     0.302348    Uiso  ? C
   C98        1.0     0.412757     0.008415     0.346389    Uiso  ? C
   C99        1.0     0.503711     0.008435     0.433257    Uiso  ? C
   C100       1.0     0.628265     0.999570     0.289739    Uiso  ? C
   C101       1.0     0.580787     0.571660     0.584838    Uiso  ? C
   C102       1.0     0.611257     0.517953     0.670499    Uiso  ? C
   C103       1.0     0.369723     0.503914     0.697808    Uiso  ? C
   C104       1.0     0.087461     0.491486     0.653800    Uiso  ? C
   C105       1.0     0.996948     0.490743     0.566818    Uiso  ? C
   C106       1.0     0.871700     0.500484     0.710184    Uiso  ? C
   C107       1.0     0.081320     0.072037     0.584913    Uiso  ? C
   C108       1.0     0.111488     0.018076     0.670575    Uiso  ? C
   C109       1.0     0.870020     0.004008     0.697660    Uiso  ? C
   C110       1.0     0.587445     0.991515     0.653737    Uiso  ? C
   C111       1.0     0.496502     0.991364     0.566819    Uiso  ? C
   C112       1.0     0.371813     0.000340     0.710281    Uiso  ? C
   Eu1        1.0     0.500008     0.500007     0.999998    Uiso  ? Eu
   Eu2        1.0    -0.000003     0.000002     1.000006    Uiso  ? Eu
   Eu3        1.0     0.250197     0.749977     0.500187    Uiso  ? Eu
   Eu4        1.0     0.750093     0.250059     0.500198    Uiso  ? Eu
   K1         1.0    -0.000012     0.500001     0.999989    Uiso  ? K
   K2         1.0     0.499978     0.000010     0.999997    Uiso  ? K
   K3         1.0     0.751217     0.749274     0.499483    Uiso  ? K
   K4         1.0     0.250852     0.249555     0.499664    Uiso  ? K
