
#======================================================================
# CRYSTAL DATA
#----------------------------------------------------------------------
data_VESTA_phase_1

_chemical_name_common                  'ATE_EuK\(2)                           '
_cell_length_a                         14.246060
_cell_length_b                         14.375564
_cell_length_c                         26.195496
_cell_angle_alpha                      90.369011
_cell_angle_beta                       92.058029
_cell_angle_gamma                      89.613922
_cell_volume                           5361.025130
_space_group_name_H-M_alt              'P 1'
_space_group_IT_number                 1

loop_
_space_group_symop_operation_xyz
   'x, y, z'

loop_
   _atom_site_label
   _atom_site_occupancy
   _atom_site_fract_x
   _atom_site_fract_y
   _atom_site_fract_z
   _atom_site_adp_type
   _atom_site_U_iso_or_equiv
   _atom_site_type_symbol
   O1         1.0     0.574822     0.661143     0.009773    Uiso  ? O
   O2         1.0     0.525513     0.423744     0.911104    Uiso  ? O
   O3         1.0     0.979606     0.575283     0.115076    Uiso  ? O
   O4         1.0     0.846025     0.759871     0.326120    Uiso  ? O
   O5         1.0     0.955393     0.773498     0.488828    Uiso  ? O
   O6         1.0     0.761865     0.833683     0.383453    Uiso  ? O
   O7         1.0     0.758167     0.540614     0.502324    Uiso  ? O
   O8         1.0     0.767195     0.679658     0.381495    Uiso  ? O
   O9         1.0     0.074802     0.161138     0.009781    Uiso  ? O
   O10        1.0     0.025478     0.923714     0.911137    Uiso  ? O
   O11        1.0     0.479637     0.075260     0.115075    Uiso  ? O
   O12        1.0     0.344756     0.260366     0.325485    Uiso  ? O
   O13        1.0     0.455288     0.273106     0.489312    Uiso  ? O
   O14        1.0     0.261607     0.333921     0.383543    Uiso  ? O
   O15        1.0     0.258240     0.040710     0.501651    Uiso  ? O
   O16        1.0     0.270159     0.179567     0.382452    Uiso  ? O
   O17        1.0     0.424848     0.661666     0.990187    Uiso  ? O
   O18        1.0     0.474341     0.424487     0.088989    Uiso  ? O
   O19        1.0     0.020118     0.578061     0.885170    Uiso  ? O
   O20        1.0     0.088225     0.755335     0.448887    Uiso  ? O
   O21        1.0     0.185279     0.762521     0.661014    Uiso  ? O
   O22        1.0     0.173138     0.596456     0.491048    Uiso  ? O
   O23        1.0     0.088015     0.749840     0.531957    Uiso  ? O
   O24        1.0     0.228602     0.833326     0.591177    Uiso  ? O
   O25        1.0     0.320911     0.589111     0.513431    Uiso  ? O
   O26        1.0     0.255105     0.684750     0.600005    Uiso  ? O
   O27        1.0     0.924830     0.161664     0.990193    Uiso  ? O
   O28        1.0     0.974335     0.924479     0.089023    Uiso  ? O
   O29        1.0     0.520178     0.078023     0.885183    Uiso  ? O
   O30        1.0     0.587904     0.255296     0.449127    Uiso  ? O
   O31        1.0     0.685446     0.262486     0.660980    Uiso  ? O
   O32        1.0     0.673054     0.096630     0.491075    Uiso  ? O
   O33        1.0     0.588240     0.250166     0.532189    Uiso  ? O
   O34        1.0     0.728696     0.333878     0.591303    Uiso  ? O
   O35        1.0     0.820907     0.089437     0.513371    Uiso  ? O
   O36        1.0     0.755412     0.185284     0.599808    Uiso  ? O
   O37        1.0     0.425200     0.338858     0.990216    Uiso  ? O
   O38        1.0     0.474501     0.576263     0.088853    Uiso  ? O
   O39        1.0     0.020371     0.424732     0.884917    Uiso  ? O
   O40        1.0     0.154573     0.238233     0.674341    Uiso  ? O
   O41        1.0     0.044069     0.224979     0.509449    Uiso  ? O
   O42        1.0     0.238236     0.165210     0.616781    Uiso  ? O
   O43        1.0     0.241601     0.459586     0.497878    Uiso  ? O
   O44        1.0     0.237382     0.318772     0.621118    Uiso  ? O
   O45        1.0     0.925177     0.838844     0.990228    Uiso  ? O
   O46        1.0     0.974500     0.076256     0.088877    Uiso  ? O
   O47        1.0     0.520413     0.924695     0.884927    Uiso  ? O
   O48        1.0     0.653096     0.738830     0.673495    Uiso  ? O
   O49        1.0     0.543314     0.722456     0.509735    Uiso  ? O
   O50        1.0     0.737899     0.666228     0.616683    Uiso  ? O
   O51        1.0     0.741971     0.959902     0.497259    Uiso  ? O
   O52        1.0     0.745161     0.818555     0.624791    Uiso  ? O
   O53        1.0     0.575171     0.338329     0.009808    Uiso  ? O
   O54        1.0     0.525687     0.575523     0.910954    Uiso  ? O
   O55        1.0     0.979829     0.421955     0.114805    Uiso  ? O
   O56        1.0     0.912724     0.244610     0.550618    Uiso  ? O
   O57        1.0     0.814700     0.238253     0.339005    Uiso  ? O
   O58        1.0     0.826895     0.403790     0.508854    Uiso  ? O
   O59        1.0     0.910572     0.249874     0.467521    Uiso  ? O
   O60        1.0     0.770732     0.165625     0.408149    Uiso  ? O
   O61        1.0     0.678986     0.410959     0.486748    Uiso  ? O
   O62        1.0     0.745295     0.314605     0.400688    Uiso  ? O
   O63        1.0     0.075149     0.838319     0.009821    Uiso  ? O
   O64        1.0     0.025663     0.075493     0.910987    Uiso  ? O
   O65        1.0     0.479868     0.921932     0.114806    Uiso  ? O
   O66        1.0     0.412077     0.743796     0.550780    Uiso  ? O
   O67        1.0     0.314616     0.738024     0.338917    Uiso  ? O
   O68        1.0     0.326725     0.903899     0.508924    Uiso  ? O
   O69        1.0     0.410536     0.750533     0.467689    Uiso  ? O
   O70        1.0     0.270727     0.666239     0.408338    Uiso  ? O
   O71        1.0     0.178881     0.910970     0.486701    Uiso  ? O
   O72        1.0     0.245263     0.815144     0.400333    Uiso  ? O
   O73        1.0     0.652253     0.499690     0.054689    Uiso  ? O
   O74        1.0     0.673590     0.499251     0.972652    Uiso  ? O
   O75        1.0     0.567941     0.498250     0.842350    Uiso  ? O
   O76        1.0     0.796001     0.500509     0.026724    Uiso  ? O
   O77        1.0     0.882745     0.499350     0.163193    Uiso  ? O
   O78        1.0     0.152233     0.999686     0.054697    Uiso  ? O
   O79        1.0     0.173593     0.999236     0.972663    Uiso  ? O
   O80        1.0     0.067947     0.998217     0.842391    Uiso  ? O
   O81        1.0     0.295990     0.000500     0.026745    Uiso  ? O
   O82        1.0     0.382755     0.999327     0.163178    Uiso  ? O
   O83        1.0     0.347785     0.500309     0.945312    Uiso  ? O
   O84        1.0     0.326403     0.500753     0.027344    Uiso  ? O
   O85        1.0     0.431929     0.501733     0.157570    Uiso  ? O
   O86        1.0     0.204020     0.499495     0.973255    Uiso  ? O
   O87        1.0     0.117264     0.500663     0.836819    Uiso  ? O
   O88        1.0     0.847755     0.000294     0.945318    Uiso  ? O
   O89        1.0     0.826396     0.000755     0.027352    Uiso  ? O
   O90        1.0     0.932058     0.001743     0.157626    Uiso  ? O
   O91        1.0     0.703998     0.999483     0.973273    Uiso  ? O
   O92        1.0     0.617379     0.000618     0.836868    Uiso  ? O
   O93        1.0     0.499685     0.794497     0.999761    Uiso  ? O
   O94        1.0     0.999669     0.294494     0.999770    Uiso  ? O
   O95        1.0     0.500332     0.205501     0.000227    Uiso  ? O
   O96        1.0     0.000315     0.705489     0.000233    Uiso  ? O
   N1         1.0     0.786969     0.757854     0.361455    Uiso  ? N
   N2         1.0     0.569997     0.579936     0.312112    Uiso  ? N
   N3         1.0     0.820257     0.753908     0.211995    Uiso  ? N
   N4         1.0     0.676646     0.840415     0.190370    Uiso  ? N
   N5         1.0     0.755300     0.751473     0.124252    Uiso  ? N
   N6         1.0     0.674803     0.670614     0.192135    Uiso  ? N
   N7         1.0     0.076277     0.586461     0.302958    Uiso  ? N
   N8         1.0     0.286319     0.258177     0.361184    Uiso  ? N
   N9         1.0     0.069986     0.079882     0.312317    Uiso  ? N
   N10        1.0     0.320227     0.253921     0.211958    Uiso  ? N
   N11        1.0     0.176627     0.340433     0.190331    Uiso  ? N
   N12        1.0     0.255270     0.251466     0.124224    Uiso  ? N
   N13        1.0     0.174766     0.170631     0.192116    Uiso  ? N
   N14        1.0     0.576300     0.086386     0.303002    Uiso  ? N
   N15        1.0     0.245376     0.545524     0.500778    Uiso  ? N
   N16        1.0     0.041442     0.759620     0.489377    Uiso  ? N
   N17        1.0     0.222957     0.760042     0.618386    Uiso  ? N
   N18        1.0     0.426094     0.587774     0.694715    Uiso  ? N
   N19        1.0     0.180145     0.754049     0.787066    Uiso  ? N
   N20        1.0     0.323222     0.839398     0.809671    Uiso  ? N
   N21        1.0     0.243989     0.752017     0.875260    Uiso  ? N
   N22        1.0     0.325718     0.669635     0.807686    Uiso  ? N
   N23        1.0     0.925531     0.583796     0.695240    Uiso  ? N
   N24        1.0     0.745468     0.045780     0.500570    Uiso  ? N
   N25        1.0     0.541390     0.259528     0.489699    Uiso  ? N
   N26        1.0     0.723137     0.260371     0.618363    Uiso  ? N
   N27        1.0     0.926070     0.087613     0.694717    Uiso  ? N
   N28        1.0     0.680167     0.254054     0.787062    Uiso  ? N
   N29        1.0     0.823251     0.339399     0.809669    Uiso  ? N
   N30        1.0     0.743995     0.252027     0.875257    Uiso  ? N
   N31        1.0     0.825728     0.169632     0.807690    Uiso  ? N
   N32        1.0     0.425685     0.083709     0.695339    Uiso  ? N
   N33        1.0     0.213712     0.240617     0.639219    Uiso  ? N
   N34        1.0     0.430253     0.420177     0.687611    Uiso  ? N
   N35        1.0     0.179791     0.246036     0.788047    Uiso  ? N
   N36        1.0     0.323408     0.159564     0.809720    Uiso  ? N
   N37        1.0     0.244731     0.248558     0.875793    Uiso  ? N
   N38        1.0     0.325230     0.329367     0.807884    Uiso  ? N
   N39        1.0     0.923742     0.413633     0.696877    Uiso  ? N
   N40        1.0     0.713818     0.741268     0.639372    Uiso  ? N
   N41        1.0     0.930336     0.920135     0.687962    Uiso  ? N
   N42        1.0     0.679774     0.746057     0.787988    Uiso  ? N
   N43        1.0     0.823400     0.659573     0.809669    Uiso  ? N
   N44        1.0     0.744706     0.748541     0.875749    Uiso  ? N
   N45        1.0     0.825204     0.829379     0.807857    Uiso  ? N
   N46        1.0     0.423746     0.913554     0.696898    Uiso  ? N
   N47        1.0     0.754547     0.454676     0.499313    Uiso  ? N
   N48        1.0     0.958236     0.239794     0.509747    Uiso  ? N
   N49        1.0     0.776996     0.239605     0.381615    Uiso  ? N
   N50        1.0     0.574004     0.412417     0.305248    Uiso  ? N
   N51        1.0     0.819847     0.245955     0.212943    Uiso  ? N
   N52        1.0     0.676768     0.160603     0.190346    Uiso  ? N
   N53        1.0     0.756018     0.247963     0.124749    Uiso  ? N
   N54        1.0     0.674286     0.330367     0.192308    Uiso  ? N
   N55        1.0     0.074311     0.416352     0.304798    Uiso  ? N
   N56        1.0     0.254482     0.954704     0.499098    Uiso  ? N
   N57        1.0     0.457788     0.738753     0.509968    Uiso  ? N
   N58        1.0     0.276937     0.739919     0.381545    Uiso  ? N
   N59        1.0     0.073998     0.912348     0.305293    Uiso  ? N
   N60        1.0     0.319845     0.745966     0.212939    Uiso  ? N
   N61        1.0     0.176774     0.660602     0.190344    Uiso  ? N
   N62        1.0     0.256009     0.747968     0.124747    Uiso  ? N
   N63        1.0     0.174272     0.830364     0.192309    Uiso  ? N
   N64        1.0     0.574382     0.916274     0.304818    Uiso  ? N
   N65        1.0     0.709441     0.499808     0.018182    Uiso  ? N
   N66        1.0     0.947493     0.498870     0.131130    Uiso  ? N
   N67        1.0     0.539985     0.499204     0.887007    Uiso  ? N
   N68        1.0     0.454059     0.442968     0.368974    Uiso  ? N
   N69        1.0     0.433821     0.497260     0.279786    Uiso  ? N
   N70        1.0     0.010445     0.505340     0.375739    Uiso  ? N
   N71        1.0     0.928513     0.504108     0.291375    Uiso  ? N
   N72        1.0     0.209433     0.999799     0.018195    Uiso  ? N
   N73        1.0     0.447517     0.998852     0.131125    Uiso  ? N
   N74        1.0     0.039971     0.999176     0.887039    Uiso  ? N
   N75        1.0     0.953825     0.942423     0.368973    Uiso  ? N
   N76        1.0     0.933809     0.997190     0.279863    Uiso  ? N
   N77        1.0     0.510439     0.005202     0.375757    Uiso  ? N
   N78        1.0     0.428585     0.003993     0.291364    Uiso  ? N
   N79        1.0     0.290578     0.500194     0.981813    Uiso  ? N
   N80        1.0     0.052485     0.501139     0.868866    Uiso  ? N
   N81        1.0     0.459975     0.500794     0.112949    Uiso  ? N
   N82        1.0     0.546592     0.558194     0.631112    Uiso  ? N
   N83        1.0     0.566193     0.502936     0.720208    Uiso  ? N
   N84        1.0     0.989427     0.495156     0.624175    Uiso  ? N
   N85        1.0     0.071418     0.496062     0.708520    Uiso  ? N
   N86        1.0     0.790558     0.000186     0.981824    Uiso  ? N
   N87        1.0     0.552554     0.001106     0.868889    Uiso  ? N
   N88        1.0     0.960019     0.000794     0.112985    Uiso  ? N
   N89        1.0     0.046139     0.057115     0.631007    Uiso  ? N
   N90        1.0     0.066186     0.002723     0.720285    Uiso  ? N
   N91        1.0     0.489389     0.995145     0.624198    Uiso  ? N
   N92        1.0     0.571553     0.995809     0.708479    Uiso  ? N
   N93        1.0     0.499778     0.708165     0.999909    Uiso  ? N
   N94        1.0     0.999762     0.208163     0.999917    Uiso  ? N
   N95        1.0     0.500240     0.291832     0.000084    Uiso  ? N
   N96        1.0     0.000221     0.791821     0.000094    Uiso  ? N
   H1         1.0     0.350664     0.460313     0.421655    Uiso  ? H
   H2         1.0     0.428719     0.627361     0.430436    Uiso  ? H
   H3         1.0     0.581965     0.525176     0.474227    Uiso  ? H
   H4         1.0     0.511096     0.589796     0.237436    Uiso  ? H
   H5         1.0     0.442675     0.643460     0.286379    Uiso  ? H
   H6         1.0     0.333750     0.431573     0.323366    Uiso  ? H
   H7         1.0     0.517623     0.674632     0.364029    Uiso  ? H
   H8         1.0     0.628299     0.608904     0.384383    Uiso  ? H
   H9         1.0     0.803905     0.608196     0.215683    Uiso  ? H
   H10        1.0     0.747555     0.674358     0.264277    Uiso  ? H
   H11        1.0     0.815859     0.813796     0.060793    Uiso  ? H
   H12        1.0     0.714585     0.742206     0.046324    Uiso  ? H
   H13        1.0     0.826095     0.689514     0.063457    Uiso  ? H
   H14        1.0     0.884272     0.687607     0.150143    Uiso  ? H
   H15        1.0     0.884895     0.813649     0.149279    Uiso  ? H
   H16        1.0     0.806415     0.900215     0.214017    Uiso  ? H
   H17        1.0     0.746838     0.838479     0.262539    Uiso  ? H
   H18        1.0     0.742515     0.899048     0.127721    Uiso  ? H
   H19        1.0     0.633949     0.839576     0.112746    Uiso  ? H
   H20        1.0     0.604341     0.760200     0.242483    Uiso  ? H
   H21        1.0     0.556375     0.757459     0.178120    Uiso  ? H
   H22        1.0     0.633016     0.666290     0.113971    Uiso  ? H
   H23        1.0     0.739809     0.604305     0.130661    Uiso  ? H
   H24        1.0     0.021633     0.651052     0.368638    Uiso  ? H
   H25        1.0     0.132344     0.591413     0.378474    Uiso  ? H
   H26        1.0     0.875421     0.445866     0.356834    Uiso  ? H
   H27        1.0     0.933833     0.530372     0.443047    Uiso  ? H
   H28        1.0     0.054409     0.562721     0.447026    Uiso  ? H
   H29        1.0     0.912220     0.363964     0.425585    Uiso  ? H
   H30        1.0     0.944008     0.649076     0.286106    Uiso  ? H
   H31        1.0     0.992516     0.582291     0.234857    Uiso  ? H
   H32        1.0     0.850707     0.960205     0.421700    Uiso  ? H
   H33        1.0     0.928993     0.127158     0.430207    Uiso  ? H
   H34        1.0     0.082032     0.025178     0.474291    Uiso  ? H
   H35        1.0     0.011076     0.089964     0.237686    Uiso  ? H
   H36        1.0     0.942588     0.143355     0.286677    Uiso  ? H
   H37        1.0     0.833609     0.931376     0.323323    Uiso  ? H
   H38        1.0     0.018447     0.175455     0.364026    Uiso  ? H
   H39        1.0     0.129193     0.109734     0.384299    Uiso  ? H
   H40        1.0     0.303870     0.108210     0.215651    Uiso  ? H
   H41        1.0     0.247563     0.174422     0.264250    Uiso  ? H
   H42        1.0     0.315846     0.313773     0.060774    Uiso  ? H
   H43        1.0     0.214572     0.242188     0.046296    Uiso  ? H
   H44        1.0     0.326076     0.189492     0.063442    Uiso  ? H
   H45        1.0     0.384243     0.187602     0.150119    Uiso  ? H
   H46        1.0     0.384867     0.313645     0.149251    Uiso  ? H
   H47        1.0     0.306407     0.400230     0.213967    Uiso  ? H
   H48        1.0     0.246867     0.338510     0.262503    Uiso  ? H
   H49        1.0     0.242508     0.399040     0.127692    Uiso  ? H
   H50        1.0     0.133934     0.339577     0.112706    Uiso  ? H
   H51        1.0     0.104363     0.260256     0.242473    Uiso  ? H
   H52        1.0     0.056338     0.257484     0.178118    Uiso  ? H
   H53        1.0     0.132979     0.166296     0.113953    Uiso  ? H
   H54        1.0     0.239766     0.104306     0.130653    Uiso  ? H
   H55        1.0     0.521591     0.150921     0.368658    Uiso  ? H
   H56        1.0     0.632337     0.091293     0.378525    Uiso  ? H
   H57        1.0     0.375399     0.945735     0.356807    Uiso  ? H
   H58        1.0     0.433530     0.029449     0.443107    Uiso  ? H
   H59        1.0     0.553916     0.062992     0.447052    Uiso  ? H
   H60        1.0     0.412247     0.863880     0.425734    Uiso  ? H
   H61        1.0     0.444011     0.149003     0.286148    Uiso  ? H
   H62        1.0     0.492574     0.082290     0.234885    Uiso  ? H
   H63        1.0     0.557226     0.422983     0.567567    Uiso  ? H
   H64        1.0     0.540823     0.606485     0.557017    Uiso  ? H
   H65        1.0     0.433493     0.424447     0.528766    Uiso  ? H
   H66        1.0     0.479296     0.575581     0.770600    Uiso  ? H
   H67        1.0     0.546990     0.647271     0.729766    Uiso  ? H
   H68        1.0     0.638232     0.451339     0.657142    Uiso  ? H
   H69        1.0     0.476562     0.684219     0.642877    Uiso  ? H
   H70        1.0     0.404201     0.595626     0.614941    Uiso  ? H
   H71        1.0     0.197363     0.608144     0.783383    Uiso  ? H
   H72        1.0     0.255596     0.672935     0.735280    Uiso  ? H
   H73        1.0     0.182565     0.814818     0.939094    Uiso  ? H
   H74        1.0     0.284328     0.742654     0.953163    Uiso  ? H
   H75        1.0     0.173353     0.690546     0.935602    Uiso  ? H
   H76        1.0     0.115742     0.689064     0.848677    Uiso  ? H
   H77        1.0     0.114550     0.815097     0.849957    Uiso  ? H
   H78        1.0     0.193660     0.900368     0.785675    Uiso  ? H
   H79        1.0     0.254531     0.837859     0.737188    Uiso  ? H
   H80        1.0     0.256382     0.899498     0.872277    Uiso  ? H
   H81        1.0     0.364993     0.838999     0.887379    Uiso  ? H
   H82        1.0     0.396209     0.757076     0.757578    Uiso  ? H
   H83        1.0     0.443798     0.755575     0.822050    Uiso  ? H
   H84        1.0     0.366651     0.666269     0.885901    Uiso  ? H
   H85        1.0     0.260498     0.604681     0.868833    Uiso  ? H
   H86        1.0     0.978668     0.642216     0.628845    Uiso  ? H
   H87        1.0     0.868186     0.584336     0.620093    Uiso  ? H
   H88        1.0     0.120710     0.428479     0.641891    Uiso  ? H
   H89        1.0     0.129149     0.611445     0.585985    Uiso  ? H
   H90        1.0     0.973483     0.557734     0.550807    Uiso  ? H
   H91        1.0     0.113413     0.340859     0.584107    Uiso  ? H
   H92        1.0     0.059360     0.642493     0.710272    Uiso  ? H
   H93        1.0     0.010121     0.583168     0.763015    Uiso  ? H
   H94        1.0     0.057627     0.923163     0.567581    Uiso  ? H
   H95        1.0     0.041592     0.107299     0.557212    Uiso  ? H
   H96        1.0     0.933568     0.924478     0.528725    Uiso  ? H
   H97        1.0     0.979363     0.075640     0.770593    Uiso  ? H
   H98        1.0     0.047072     0.147070     0.729594    Uiso  ? H
   H99        1.0     0.138244     0.950749     0.657254    Uiso  ? H
   H100       1.0     0.977252     0.183703     0.643036    Uiso  ? H
   H101       1.0     0.904048     0.095813     0.614943    Uiso  ? H
   H102       1.0     0.697368     0.108149     0.783378    Uiso  ? H
   H103       1.0     0.755627     0.172922     0.735281    Uiso  ? H
   H104       1.0     0.682561     0.314827     0.939091    Uiso  ? H
   H105       1.0     0.784324     0.242663     0.953162    Uiso  ? H
   H106       1.0     0.673349     0.190557     0.935595    Uiso  ? H
   H107       1.0     0.615749     0.189067     0.848668    Uiso  ? H
   H108       1.0     0.614547     0.315097     0.849947    Uiso  ? H
   H109       1.0     0.693674     0.400359     0.785687    Uiso  ? H
   H110       1.0     0.754546     0.337857     0.737189    Uiso  ? H
   H111       1.0     0.756395     0.399501     0.872273    Uiso  ? H
   H112       1.0     0.865000     0.339002     0.887384    Uiso  ? H
   H113       1.0     0.896238     0.257032     0.757581    Uiso  ? H
   H114       1.0     0.943825     0.255557     0.822048    Uiso  ? H
   H115       1.0     0.866655     0.166278     0.885905    Uiso  ? H
   H116       1.0     0.760496     0.104691     0.868835    Uiso  ? H
   H117       1.0     0.478747     0.142154     0.628945    Uiso  ? H
   H118       1.0     0.368201     0.084355     0.620246    Uiso  ? H
   H119       1.0     0.620550     0.928144     0.641699    Uiso  ? H
   H120       1.0     0.629567     0.111347     0.585963    Uiso  ? H
   H121       1.0     0.473506     0.058459     0.551040    Uiso  ? H
   H122       1.0     0.605610     0.839146     0.581039    Uiso  ? H
   H123       1.0     0.559532     0.142299     0.710276    Uiso  ? H
   H124       1.0     0.510407     0.082947     0.763036    Uiso  ? H
   H125       1.0     0.648939     0.539242     0.578293    Uiso  ? H
   H126       1.0     0.571037     0.372684     0.569370    Uiso  ? H
   H127       1.0     0.417689     0.473899     0.525370    Uiso  ? H
   H128       1.0     0.488860     0.410036     0.762297    Uiso  ? H
   H129       1.0     0.557526     0.356766     0.713337    Uiso  ? H
   H130       1.0     0.666712     0.568591     0.676931    Uiso  ? H
   H131       1.0     0.481758     0.324196     0.636072    Uiso  ? H
   H132       1.0     0.371742     0.390487     0.615493    Uiso  ? H
   H133       1.0     0.196104     0.391750     0.784359    Uiso  ? H
   H134       1.0     0.252460     0.325671     0.735743    Uiso  ? H
   H135       1.0     0.184160     0.186246     0.939245    Uiso  ? H
   H136       1.0     0.285426     0.257838     0.953723    Uiso  ? H
   H137       1.0     0.173916     0.310530     0.936582    Uiso  ? H
   H138       1.0     0.115761     0.312395     0.849882    Uiso  ? H
   H139       1.0     0.115143     0.186356     0.850776    Uiso  ? H
   H140       1.0     0.193638     0.099732     0.786102    Uiso  ? H
   H141       1.0     0.253287     0.161330     0.737577    Uiso  ? H
   H142       1.0     0.257523     0.100981     0.872364    Uiso  ? H
   H143       1.0     0.366080     0.160467     0.887347    Uiso  ? H
   H144       1.0     0.395657     0.239687     0.757553    Uiso  ? H
   H145       1.0     0.443675     0.242542     0.821904    Uiso  ? H
   H146       1.0     0.367019     0.333741     0.886050    Uiso  ? H
   H147       1.0     0.260229     0.395720     0.869351    Uiso  ? H
   H148       1.0     0.978639     0.349497     0.631029    Uiso  ? H
   H149       1.0     0.867646     0.408886     0.621353    Uiso  ? H
   H150       1.0     0.124526     0.554525     0.643123    Uiso  ? H
   H151       1.0     0.065921     0.471089     0.556716    Uiso  ? H
   H152       1.0     0.945684     0.437826     0.552830    Uiso  ? H
   H153       1.0     0.087998     0.636426     0.574254    Uiso  ? H
   H154       1.0     0.056048     0.351048     0.713672    Uiso  ? H
   H155       1.0     0.007514     0.417650     0.764979    Uiso  ? H
   H156       1.0     0.149349     0.039408     0.578362    Uiso  ? H
   H157       1.0     0.070623     0.872652     0.569278    Uiso  ? H
   H158       1.0     0.917921     0.973980     0.525347    Uiso  ? H
   H159       1.0     0.989099     0.910163     0.762783    Uiso  ? H
   H160       1.0     0.057453     0.856483     0.713784    Uiso  ? H
   H161       1.0     0.166267     0.068273     0.676743    Uiso  ? H
   H162       1.0     0.983422     0.825685     0.636211    Uiso  ? H
   H163       1.0     0.874172     0.892713     0.615169    Uiso  ? H
   H164       1.0     0.696088     0.891773     0.784308    Uiso  ? H
   H165       1.0     0.752531     0.825827     0.735695    Uiso  ? H
   H166       1.0     0.684154     0.686228     0.939222    Uiso  ? H
   H167       1.0     0.785429     0.757823     0.953679    Uiso  ? H
   H168       1.0     0.673914     0.810513     0.936552    Uiso  ? H
   H169       1.0     0.615740     0.812396     0.849845    Uiso  ? H
   H170       1.0     0.615117     0.686360     0.850733    Uiso  ? H
   H171       1.0     0.693630     0.599753     0.786058    Uiso  ? H
   H172       1.0     0.753371     0.661324     0.737549    Uiso  ? H
   H173       1.0     0.757511     0.600962     0.872317    Uiso  ? H
   H174       1.0     0.866064     0.660443     0.887296    Uiso  ? H
   H175       1.0     0.895674     0.739769     0.757529    Uiso  ? H
   H176       1.0     0.943652     0.742555     0.821883    Uiso  ? H
   H177       1.0     0.866996     0.833728     0.886020    Uiso  ? H
   H178       1.0     0.760200     0.895712     0.869330    Uiso  ? H
   H179       1.0     0.478754     0.849595     0.630861    Uiso  ? H
   H180       1.0     0.367616     0.908872     0.621382    Uiso  ? H
   H181       1.0     0.624622     0.054191     0.643076    Uiso  ? H
   H182       1.0     0.565409     0.970786     0.556670    Uiso  ? H
   H183       1.0     0.445210     0.938532     0.552782    Uiso  ? H
   H184       1.0     0.588238     0.136408     0.574500    Uiso  ? H
   H185       1.0     0.555975     0.850886     0.713730    Uiso  ? H
   H186       1.0     0.507537     0.917644     0.764992    Uiso  ? H
   H187       1.0     0.442496     0.577111     0.432576    Uiso  ? H
   H188       1.0     0.458692     0.392832     0.442746    Uiso  ? H
   H189       1.0     0.566188     0.574686     0.471065    Uiso  ? H
   H190       1.0     0.520466     0.424278     0.229411    Uiso  ? H
   H191       1.0     0.452899     0.352895     0.270527    Uiso  ? H
   H192       1.0     0.361825     0.549120     0.342831    Uiso  ? H
   H193       1.0     0.522863     0.316322     0.356899    Uiso  ? H
   H194       1.0     0.596061     0.404251     0.385016    Uiso  ? H
   H195       1.0     0.802638     0.391858     0.216616    Uiso  ? H
   H196       1.0     0.744373     0.327094     0.264714    Uiso  ? H
   H197       1.0     0.817447     0.185153     0.060921    Uiso  ? H
   H198       1.0     0.715684     0.257314     0.046847    Uiso  ? H
   H199       1.0     0.826659     0.309423     0.064409    Uiso  ? H
   H200       1.0     0.884264     0.310926     0.151334    Uiso  ? H
   H201       1.0     0.885467     0.184897     0.150064    Uiso  ? H
   H202       1.0     0.806350     0.099639     0.214341    Uiso  ? H
   H203       1.0     0.745489     0.162151     0.262826    Uiso  ? H
   H204       1.0     0.743616     0.100487     0.127745    Uiso  ? H
   H205       1.0     0.635007     0.160991     0.112636    Uiso  ? H
   H206       1.0     0.603773     0.242991     0.242425    Uiso  ? H
   H207       1.0     0.556190     0.244440     0.177960    Uiso  ? H
   H208       1.0     0.633356     0.333712     0.114099    Uiso  ? H
   H209       1.0     0.739515     0.395302     0.131166    Uiso  ? H
   H210       1.0     0.021138     0.358229     0.371247    Uiso  ? H
   H211       1.0     0.131778     0.415983     0.379890    Uiso  ? H
   H212       1.0     0.878936     0.571786     0.357732    Uiso  ? H
   H213       1.0     0.870942     0.389117     0.414125    Uiso  ? H
   H214       1.0     0.025591     0.443122     0.449235    Uiso  ? H
   H215       1.0     0.882840     0.659711     0.417690    Uiso  ? H
   H216       1.0     0.940507     0.357653     0.289791    Uiso  ? H
   H217       1.0     0.989833     0.416781     0.237008    Uiso  ? H
   H218       1.0     0.942284     0.076815     0.432501    Uiso  ? H
   H219       1.0     0.958772     0.892813     0.442819    Uiso  ? H
   H220       1.0     0.065899     0.074545     0.470962    Uiso  ? H
   H221       1.0     0.020544     0.924391     0.229446    Uiso  ? H
   H222       1.0     0.952969     0.852856     0.270466    Uiso  ? H
   H223       1.0     0.861780     0.048808     0.342941    Uiso  ? H
   H224       1.0     0.023116     0.816078     0.356926    Uiso  ? H
   H225       1.0     0.095972     0.904200     0.385062    Uiso  ? H
   H226       1.0     0.302616     0.891869     0.216612    Uiso  ? H
   H227       1.0     0.244377     0.827087     0.264715    Uiso  ? H
   H228       1.0     0.317443     0.685161     0.060920    Uiso  ? H
   H229       1.0     0.215677     0.757317     0.046845    Uiso  ? H
   H230       1.0     0.326648     0.809431     0.064407    Uiso  ? H
   H231       1.0     0.384253     0.810938     0.151327    Uiso  ? H
   H232       1.0     0.385457     0.684906     0.150061    Uiso  ? H
   H233       1.0     0.306355     0.599644     0.214341    Uiso  ? H
   H234       1.0     0.245496     0.662157     0.262826    Uiso  ? H
   H235       1.0     0.243628     0.600488     0.127747    Uiso  ? H
   H236       1.0     0.135011     0.660978     0.112633    Uiso  ? H
   H237       1.0     0.103780     0.742963     0.242426    Uiso  ? H
   H238       1.0     0.056187     0.744422     0.177960    Uiso  ? H
   H239       1.0     0.133340     0.833706     0.114099    Uiso  ? H
   H240       1.0     0.239493     0.895305     0.131166    Uiso  ? H
   H241       1.0     0.521183     0.858072     0.371249    Uiso  ? H
   H242       1.0     0.631791     0.915873     0.379929    Uiso  ? H
   H243       1.0     0.379031     0.071670     0.357639    Uiso  ? H
   H244       1.0     0.371168     0.888831     0.413897    Uiso  ? H
   H245       1.0     0.525915     0.943238     0.449317    Uiso  ? H
   H246       1.0     0.382169     0.161151     0.415106    Uiso  ? H
   H247       1.0     0.440579     0.857555     0.289773    Uiso  ? H
   H248       1.0     0.489942     0.916696     0.237002    Uiso  ? H
   H249       1.0     0.655581     0.502568     0.263753    Uiso  ? H
   H250       1.0     0.688613     0.495842     0.330631    Uiso  ? H
   H251       1.0     0.195052     0.499406     0.311318    Uiso  ? H
   H252       1.0     0.137578     0.497616     0.249040    Uiso  ? H
   H253       1.0     0.155604     0.002682     0.263946    Uiso  ? H
   H254       1.0     0.188506     0.995689     0.330828    Uiso  ? H
   H255       1.0     0.695088     0.999383     0.311360    Uiso  ? H
   H256       1.0     0.637637     0.997593     0.249075    Uiso  ? H
   H257       1.0     0.344492     0.497230     0.735931    Uiso  ? H
   H258       1.0     0.311738     0.504331     0.669042    Uiso  ? H
   H259       1.0     0.804924     0.500524     0.688649    Uiso  ? H
   H260       1.0     0.862422     0.502209     0.750920    Uiso  ? H
   H261       1.0     0.844285     0.997537     0.736143    Uiso  ? H
   H262       1.0     0.811583     0.003972     0.669232    Uiso  ? H
   H263       1.0     0.304982     0.000604     0.688721    Uiso  ? H
   H264       1.0     0.362492     0.002130     0.750988    Uiso  ? H
   C1         1.0     0.486385     0.583234     0.276527    Uiso  ? C
   C2         1.0     0.572395     0.623854     0.356255    Uiso  ? C
   C3         1.0     0.763508     0.671627     0.223640    Uiso  ? C
   C4         1.0     0.779484     0.749237     0.069861    Uiso  ? C
   C5         1.0     0.845184     0.751451     0.159487    Uiso  ? C
   C6         1.0     0.764579     0.838370     0.222156    Uiso  ? C
   C7         1.0     0.698297     0.839588     0.137220    Uiso  ? C
   C8         1.0     0.621517     0.757053     0.201966    Uiso  ? C
   C9         1.0     0.696767     0.665915     0.138894    Uiso  ? C
   C10        1.0     0.064409     0.590855     0.357241    Uiso  ? C
   C11        1.0     0.982964     0.585634     0.276235    Uiso  ? C
   C12        1.0     0.986370     0.083217     0.276771    Uiso  ? C
   C13        1.0     0.073135     0.124604     0.356248    Uiso  ? C
   C14        1.0     0.263482     0.171646     0.223613    Uiso  ? C
   C15        1.0     0.279463     0.249217     0.069840    Uiso  ? C
   C16        1.0     0.345158     0.251448     0.159463    Uiso  ? C
   C17        1.0     0.264557     0.338401     0.222118    Uiso  ? C
   C18        1.0     0.198273     0.339588     0.137187    Uiso  ? C
   C19        1.0     0.121498     0.257087     0.201950    Uiso  ? C
   C20        1.0     0.196727     0.165922     0.138876    Uiso  ? C
   C21        1.0     0.564419     0.090731     0.357276    Uiso  ? C
   C22        1.0     0.482999     0.085578     0.276261    Uiso  ? C
   C23        1.0     0.505680     0.583222     0.732047    Uiso  ? C
   C24        1.0     0.458548     0.610027     0.644689    Uiso  ? C
   C25        1.0     0.237829     0.670952     0.775664    Uiso  ? C
   C26        1.0     0.219435     0.750107     0.929605    Uiso  ? C
   C27        1.0     0.154655     0.752456     0.839664    Uiso  ? C
   C28        1.0     0.235868     0.838050     0.777471    Uiso  ? C
   C29        1.0     0.300890     0.839502     0.862706    Uiso  ? C
   C30        1.0     0.378863     0.755297     0.798042    Uiso  ? C
   C31        1.0     0.303193     0.665860     0.860728    Uiso  ? C
   C32        1.0     0.936644     0.582847     0.640736    Uiso  ? C
   C33        1.0     0.019164     0.581289     0.721568    Uiso  ? C
   C34        1.0     0.005713     0.083087     0.732018    Uiso  ? C
   C35        1.0     0.958664     0.109583     0.644649    Uiso  ? C
   C36        1.0     0.737845     0.170951     0.775663    Uiso  ? C
   C37        1.0     0.719433     0.250118     0.929601    Uiso  ? C
   C38        1.0     0.654660     0.252461     0.839657    Uiso  ? C
   C39        1.0     0.735887     0.338046     0.777473    Uiso  ? C
   C40        1.0     0.800903     0.339501     0.862707    Uiso  ? C
   C41        1.0     0.878887     0.255279     0.798044    Uiso  ? C
   C42        1.0     0.803199     0.165865     0.860730    Uiso  ? C
   C43        1.0     0.436708     0.082795     0.640838    Uiso  ? C
   C44        1.0     0.519357     0.081084     0.721579    Uiso  ? C
   C45        1.0     0.513683     0.416838     0.723249    Uiso  ? C
   C46        1.0     0.427564     0.375670     0.643637    Uiso  ? C
   C47        1.0     0.236516     0.328332     0.776386    Uiso  ? C
   C48        1.0     0.220532     0.250811     0.930182    Uiso  ? C
   C49        1.0     0.154857     0.248546     0.840557    Uiso  ? C
   C50        1.0     0.235496     0.161551     0.777944    Uiso  ? C
   C51        1.0     0.301747     0.160436     0.862862    Uiso  ? C
   C52        1.0     0.378515     0.242908     0.798075    Uiso  ? C
   C53        1.0     0.303266     0.334101     0.861130    Uiso  ? C
   C54        1.0     0.935598     0.409460     0.642573    Uiso  ? C
   C55        1.0     0.017064     0.414444     0.723595    Uiso  ? C
   C56        1.0     0.013768     0.916710     0.723691    Uiso  ? C
   C57        1.0     0.929110     0.877126     0.643663    Uiso  ? C
   C58        1.0     0.736520     0.828369     0.776337    Uiso  ? C
   C59        1.0     0.720521     0.750790     0.930148    Uiso  ? C
   C60        1.0     0.654840     0.748548     0.840519    Uiso  ? C
   C61        1.0     0.735478     0.661585     0.777907    Uiso  ? C
   C62        1.0     0.801724     0.660426     0.862817    Uiso  ? C
   C63        1.0     0.878503     0.742947     0.798046    Uiso  ? C
   C64        1.0     0.803240     0.834100     0.861102    Uiso  ? C
   C65        1.0     0.435590     0.909402     0.642570    Uiso  ? C
   C66        1.0     0.517062     0.914327     0.723604    Uiso  ? C
   C67        1.0     0.494243     0.416899     0.268018    Uiso  ? C
   C68        1.0     0.541384     0.390506     0.355335    Uiso  ? C
   C69        1.0     0.762164     0.329056     0.224334    Uiso  ? C
   C70        1.0     0.780575     0.249863     0.070408    Uiso  ? C
   C71        1.0     0.845355     0.247535     0.160351    Uiso  ? C
   C72        1.0     0.764138     0.161957     0.222542    Uiso  ? C
   C73        1.0     0.699109     0.160489     0.137310    Uiso  ? C
   C74        1.0     0.621128     0.244725     0.201963    Uiso  ? C
   C75        1.0     0.696812     0.334129     0.139273    Uiso  ? C
   C76        1.0     0.063265     0.417470     0.359287    Uiso  ? C
   C77        1.0     0.980755     0.418790     0.278449    Uiso  ? C
   C78        1.0     0.994286     0.916888     0.268037    Uiso  ? C
   C79        1.0     0.041414     0.890267     0.355348    Uiso  ? C
   C80        1.0     0.262154     0.829060     0.224333    Uiso  ? C
   C81        1.0     0.280567     0.749869     0.070406    Uiso  ? C
   C82        1.0     0.345347     0.747546     0.160347    Uiso  ? C
   C83        1.0     0.264140     0.661959     0.222541    Uiso  ? C
   C84        1.0     0.199111     0.660484     0.137309    Uiso  ? C
   C85        1.0     0.121127     0.744711     0.201964    Uiso  ? C
   C86        1.0     0.196797     0.834128     0.139273    Uiso  ? C
   C87        1.0     0.563299     0.917331     0.359307    Uiso  ? C
   C88        1.0     0.480837     0.918691     0.278439    Uiso  ? C
   C89        1.0     0.418611     0.430490     0.413423    Uiso  ? C
   C90        1.0     0.390139     0.483221     0.327958    Uiso  ? C
   C91        1.0     0.629530     0.496637     0.302618    Uiso  ? C
   C92        1.0     0.914089     0.507329     0.345424    Uiso  ? C
   C93        1.0     0.004925     0.510333     0.432698    Uiso  ? C
   C94        1.0     0.126879     0.499931     0.290311    Uiso  ? C
   C95        1.0     0.918758     0.930544     0.413489    Uiso  ? C
   C96        1.0     0.890034     0.982957     0.327972    Uiso  ? C
   C97        1.0     0.129473     0.996627     0.302787    Uiso  ? C
   C98        1.0     0.414125     0.007158     0.345391    Uiso  ? C
   C99        1.0     0.504792     0.010276     0.432713    Uiso  ? C
   C100       1.0     0.626924     0.999882     0.290346    Uiso  ? C
   C101       1.0     0.580692     0.568669     0.586412    Uiso  ? C
   C102       1.0     0.610155     0.517204     0.672185    Uiso  ? C
   C103       1.0     0.370692     0.503400     0.697115    Uiso  ? C
   C104       1.0     0.085843     0.493032     0.654462    Uiso  ? C
   C105       1.0     0.994780     0.490542     0.567174    Uiso  ? C
   C106       1.0     0.873114     0.500038     0.709644    Uiso  ? C
   C107       1.0     0.081298     0.069151     0.586519    Uiso  ? C
   C108       1.0     0.109912     0.016646     0.672119    Uiso  ? C
   C109       1.0     0.870548     0.003416     0.697323    Uiso  ? C
   C110       1.0     0.585846     0.992732     0.654370    Uiso  ? C
   C111       1.0     0.494509     0.990989     0.567176    Uiso  ? C
   C112       1.0     0.373177    -0.000005     0.709710    Uiso  ? C
   Eu1        1.0     0.500004     0.499994     0.000030    Uiso  ? Eu
   Eu2        1.0    -0.000001    -0.000002     0.000040    Uiso  ? Eu
   Eu3        1.0     0.249939     0.750194     0.499997    Uiso  ? Eu
   Eu4        1.0     0.749849     0.250242     0.499905    Uiso  ? Eu
   Cs1        1.0     0.000038     0.499988     0.000037    Uiso  ? Cs
   Cs2        1.0     0.499996     0.000003     0.000026    Uiso  ? Cs
   Cs3        1.0     0.748785     0.751533     0.501167    Uiso  ? Cs
   Cs4        1.0     0.249347     0.250720     0.500475    Uiso  ? Cs
