data_mo_q_kho_300k_0m_a
_audit_creation_date               2024-11-15
_audit_creation_method
;
Olex2 1.5
(compiled 2024.02.16 svn.r378c4104 for OlexSys, GUI svn.r6928)
;
_shelx_SHELXL_version_number       '2019/3'
_audit_contact_author_address      ?
_audit_contact_author_email        ?
_audit_contact_author_name         ''
_audit_contact_author_phone        ?
_publ_contact_author_id_orcid      ?
_publ_section_references
;
Dolomanov, O.V., Bourhis, L.J., Gildea, R.J, Howard, J.A.K. & Puschmann, H.
 (2009), J. Appl. Cryst. 42, 339-341.

Sheldrick, G.M. (2015). Acta Cryst. C71, 3-8.
;
_chemical_name_common              ?
_chemical_name_systematic          ?
_chemical_formula_moiety           'Ho K N8 O24, 4(C7 H9 N)'
_chemical_formula_sum              'C28 H36 Ho K N12 O24'
_chemical_formula_weight           1128.72
_chemical_melting_point            ?
loop_
  _atom_type_symbol
  _atom_type_description
  _atom_type_scat_dispersion_real
  _atom_type_scat_dispersion_imag
  _atom_type_scat_source
 'C' 'C' 0.0033 0.0016 'International Tables Vol C Tables 4.2.6.8 and 6.1.1.4'
 'H' 'H' 0.0000 0.0000 'International Tables Vol C Tables 4.2.6.8 and 6.1.1.4'
 'Ho' 'Ho' -0.2175 4.6783
 'International Tables Vol C Tables 4.2.6.8 and 6.1.1.4'
 'K' 'K' 0.2009 0.2494 'International Tables Vol C Tables 4.2.6.8 and 6.1.1.4'
 'N' 'N' 0.0061 0.0033 'International Tables Vol C Tables 4.2.6.8 and 6.1.1.4'
 'O' 'O' 0.0106 0.0060 'International Tables Vol C Tables 4.2.6.8 and 6.1.1.4'

_shelx_space_group_comment
;
The symmetry employed for this shelxl refinement is uniquely defined
by the following loop, which should always be used as a source of
symmetry information in preference to the above space-group names.
They are only intended as comments.
;
_space_group_crystal_system        'orthorhombic'
_space_group_IT_number             65
_space_group_name_H-M_alt          'C m m m'
_space_group_name_Hall             '-C 2 2'
loop_
  _space_group_symop_operation_xyz
 'x, y, z'
 '-x, -y, z'
 '-x, y, -z'
 'x, -y, -z'
 'x+1/2, y+1/2, z'
 '-x+1/2, -y+1/2, z'
 '-x+1/2, y+1/2, -z'
 'x+1/2, -y+1/2, -z'
 '-x, -y, -z'
 'x, y, -z'
 'x, -y, z'
 '-x, y, z'
 '-x+1/2, -y+1/2, -z'
 'x+1/2, y+1/2, -z'
 'x+1/2, -y+1/2, z'
 '-x+1/2, y+1/2, z'

_cell_length_a                     9.903(4)
_cell_length_b                     23.720(10)
_cell_length_c                     9.760(4)
_cell_angle_alpha                  90
_cell_angle_beta                   90
_cell_angle_gamma                  90
_cell_volume                       2292.7(16)
_cell_formula_units_Z              2
_cell_measurement_reflns_used      3484
_cell_measurement_temperature      279.00
_cell_measurement_theta_max        25.29
_cell_measurement_theta_min        2.71
_shelx_estimated_absorpt_T_max     0.832
_shelx_estimated_absorpt_T_min     0.817
_exptl_absorpt_coefficient_mu      1.911
_exptl_absorpt_correction_T_max    0.7458
_exptl_absorpt_correction_T_min    0.6190
_exptl_absorpt_correction_type     none
_exptl_absorpt_process_details
;
SADABS-2016/2 (Bruker,2016/2) was used for absorption correction.
wR2(int) was 0.1383 before and 0.0712 after correction.
The Ratio of minimum to maximum transmission is 0.8300.
The \l/2 correction factor is Not present.
;
_exptl_absorpt_special_details     ?
_exptl_crystal_colour              colourless
_exptl_crystal_colour_primary      colourless
_exptl_crystal_density_diffrn      1.635
_exptl_crystal_density_meas        ?
_exptl_crystal_density_method      ?
_exptl_crystal_description         block
_exptl_crystal_F_000               1132
_exptl_crystal_size_max            0.11
_exptl_crystal_size_mid            0.1
_exptl_crystal_size_min            0.1
_exptl_transmission_factor_max     ?
_exptl_transmission_factor_min     ?
_diffrn_reflns_av_R_equivalents    0.0745
_diffrn_reflns_av_unetI/netI       0.0457
_diffrn_reflns_Laue_measured_fraction_full  0.999
_diffrn_reflns_Laue_measured_fraction_max  0.999
_diffrn_reflns_limit_h_max         13
_diffrn_reflns_limit_h_min         -13
_diffrn_reflns_limit_k_max         32
_diffrn_reflns_limit_k_min         -29
_diffrn_reflns_limit_l_max         13
_diffrn_reflns_limit_l_min         -11
_diffrn_reflns_number              11024
_diffrn_reflns_point_group_measured_fraction_full  0.999
_diffrn_reflns_point_group_measured_fraction_max  0.999
_diffrn_reflns_theta_full          25.242
_diffrn_reflns_theta_max           29.050
_diffrn_reflns_theta_min           2.087
_diffrn_ambient_temperature        279.00
_diffrn_detector_area_resol_mean   ?
_diffrn_measured_fraction_theta_full  0.999
_diffrn_measured_fraction_theta_max  0.999
_diffrn_measurement_device_type    'Bruker APEX-II CCD'
_diffrn_measurement_method         '\f and \w scans'
_diffrn_radiation_type             MoK\a
_diffrn_radiation_wavelength       0.71073
_diffrn_source                     ?
_diffrn_source_current             1.4
_diffrn_source_power               0.07
_diffrn_source_voltage             50.0
_diffrn_standards_number           0
_reflns_Friedel_coverage           0.000
_reflns_Friedel_fraction_full      .
_reflns_Friedel_fraction_max       .
_reflns_number_gt                  1642
_reflns_number_total               1741
_reflns_special_details
;
 Reflections were merged by SHELXL according to the crystal
 class for the calculation of statistics and refinement.
 
 _reflns_Friedel_fraction is defined as the number of unique
 Friedel pairs measured divided by the number that would be
 possible theoretically, ignoring centric projections and
 systematic absences.
;
_reflns_threshold_expression       'I > 2\s(I)'
_computing_cell_refinement         'SAINT V8.40B (?, 2016)'
_computing_data_collection         ?
_computing_data_reduction          'SAINT V8.40B (?, 2016)'
_computing_molecular_graphics      'Olex2 1.5 (Dolomanov et al., 2009)'
_computing_publication_material    'Olex2 1.5 (Dolomanov et al., 2009)'
_computing_structure_refinement    'SHELXL 2019/3 (Sheldrick, 2015)'
_computing_structure_solution      'SHELXT 2018/2 (Sheldrick, 2018)'
_refine_diff_density_max           1.854
_refine_diff_density_min           -1.029
_refine_diff_density_rms           0.159
_refine_ls_extinction_coef         .
_refine_ls_extinction_method       none
_refine_ls_goodness_of_fit_ref     1.071
_refine_ls_hydrogen_treatment      constr
_refine_ls_matrix_type             full
_refine_ls_number_parameters       123
_refine_ls_number_reflns           1741
_refine_ls_number_restraints       158
_refine_ls_R_factor_all            0.0658
_refine_ls_R_factor_gt             0.0596
_refine_ls_restrained_S_all        1.066
_refine_ls_shift/su_max            0.001
_refine_ls_shift/su_mean           0.000
_refine_ls_structure_factor_coef   Fsqd
_refine_ls_weighting_details      
 'w=1/[\s^2^(Fo^2^)+(0.1007P)^2^+10.3004P] where P=(Fo^2^+2Fc^2^)/3'
_refine_ls_weighting_scheme        calc
_refine_ls_wR_factor_gt            0.1506
_refine_ls_wR_factor_ref           0.1636
_refine_special_details            ?
_olex2_refinement_description
;
1. Fixed Uiso
 At 1.2 times of:
  All C(H,H,H,H) groups, All N(H) groups
2. Shared sites
{N5, C2}
{N3, C5}
{N2, O2}
3. Restrained distances
 C7-C7_$3
 1.5 with sigma of 0.01
 N5-C7
 1.5 with sigma of 0.01
4. Uiso/Uaniso restraints and constraints
Ho1 \\sim K1 \\sim O1 \\sim O2 \\sim O3 \\sim O4 \\sim O5 \\sim O6 \\sim O7
\\sim O8 \\sim O9 \\sim N1 \\sim N2 \\sim N4: within 2A with sigma of 0.01 and
sigma for terminal atoms of 0.02 within 2A
C7 \\sim N5 \\sim C1 \\sim C2: within 2A with sigma of 0.01 and sigma for
terminal atoms of 0.02 within 2A
Uanis(O4) \\sim Ueq: with sigma of 0.01 and sigma for terminal atoms of 0.02
Uanis(C3) \\sim Ueq: with sigma of 0.01 and sigma for terminal atoms of 0.02
Uanis(O2) \\sim Ueq, Uanis(O3) \\sim Ueq, Uanis(O7) \\sim Ueq, Uanis(N2) \\sim
Ueq: with sigma of 0.01 and sigma for terminal atoms of 0.02
Uanis(N5) = Uanis(C2)
Uanis(N3) = Uanis(C5)
Uanis(N2) = Uanis(O2)
5. Others
 Fixed Sof: O2(0.25) O3(0.25) O5(0.25) O6(0.25) O7(0.25) O8(0.5) O9(0.5)
 N2(0.25) N3(0.25) H3(0.25) H3AB(0.25) H3AA(0.25) H3BD(0.25) H3BC(0.25)
 H4AA(0.25) H4AB(0.25) H4BC(0.25) H4BD(0.25) C5(0.25) N5(0.25) H5(0.25)
 H1AA(0.25) H1AB(0.25) H1BC(0.25) H1BD(0.25) C2(0.25) H7AB(0.25) H7AA(0.25)
 H7BD(0.25) H7BC(0.25)
6.a Ternary CH refined with riding coordinates:
 N3(H3), N5(H5)
6.b Secondary CH2 refined with riding coordinates:
 C3(H3AB,H3AA), C3(H3BD,H3BC), C4(H4AA,H4AB), C4(H4BC,H4BD), C1(H1AA,H1AB),
 C1(H1BC,H1BD), C7(H7AB,H7AA), C7(H7BD,H7BC)
;
_atom_sites_solution_hydrogens     geom
_atom_sites_solution_primary       ?
_atom_sites_solution_secondary     ?
loop_
  _atom_site_label
  _atom_site_type_symbol
  _atom_site_fract_x
  _atom_site_fract_y
  _atom_site_fract_z
  _atom_site_U_iso_or_equiv
  _atom_site_adp_type
  _atom_site_occupancy
  _atom_site_site_symmetry_order
  _atom_site_calc_flag
  _atom_site_refinement_flags_posn
  _atom_site_refinement_flags_adp
  _atom_site_refinement_flags_occupancy
  _atom_site_disorder_assembly
  _atom_site_disorder_group
 Ho1 Ho 1.000000 0.500000 1.000000 0.03789(8) Uani 1 8 d S T P . .
 K1 K 0.500000 0.500000 0.500000 0.0461(4) Uani 1 8 d S T P . .
 O1 O 1.000000 0.6763(3) 1.000000 0.093(2) Uani 1 4 d S TU P . .
 O2 O 0.5869(13) 0.3741(6) 0.4617(17) 0.1975(14) Uani 0.25 1 d . U P A 4
 O3 O 0.500000 0.3849(10) 0.400(2) 0.1965(19) Uani 0.5 2 d S TU P A .
 O4 O 0.6970(5) 0.500000 0.6989(6) 0.1038(15) Uani 1 2 d S TU P A .
 O5 O 0.9091(8) 0.500000 0.7576(7) 0.0666(16) Uani 0.5 2 d S TU P A .
 O6 O 0.7597(7) 0.500000 0.9143(8) 0.0634(15) Uani 0.5 2 d S TU P A .
 O7 O 0.605(3) 0.3189(12) 0.418(2) 0.1972(19) Uani 0.25 1 d . U P . .
 O8 O 0.9242(6) 0.5972(2) 0.9231(6) 0.0640(12) Uani 0.5 1 d . U P . .
 O9 O 0.8351(5) 0.5447(2) 0.8320(6) 0.0654(11) Uani 0.5 1 d . U P A .
 N1 N 1.000000 0.6248(3) 1.000000 0.0595(15) Uani 1 4 d S TU P . .
 N2 N 0.5869(13) 0.3741(6) 0.4617(17) 0.1975(14) Uani 0.25 1 d . U P A 3
 N4 N 0.7856(5) 0.500000 0.7849(5) 0.0647(10) Uani 1 2 d S TU P . .
 N3 N 0.500000 0.6550(5) 0.8704(13) 0.160(5) Uani 0.5 2 d S T P B 1
 H3 H 0.499998 0.653111 0.770053 0.193 Uiso 0.5 2 calc R U P B 1
 C3 C 0.500000 0.5959(7) 0.9370(18) 0.236(5) Uani 1 2 d S TU P . .
 H3AB H 0.420995 0.575482 0.905397 0.283 Uiso 0.25 1 calc R U P B 1
 H3AA H 0.579005 0.575482 0.905397 0.283 Uiso 0.25 1 calc R U P B 1
 H3BD H 0.420995 0.575482 0.905397 0.283 Uiso 0.25 1 calc R U P B 2
 H3BC H 0.579005 0.575482 0.905397 0.283 Uiso 0.25 1 calc R U P B 2
 C4 C 0.6236(6) 0.6807(4) 0.9247(8) 0.147(3) Uani 1 1 d . . . . .
 H4AA H 0.630747 0.719148 0.891746 0.176 Uiso 0.25 1 calc R U P B 1
 H4AB H 0.701474 0.659931 0.891741 0.176 Uiso 0.25 1 calc R U P B 1
 H4BC H 0.630747 0.719148 0.891746 0.176 Uiso 0.25 1 calc R U P B 2
 H4BD H 0.701474 0.659931 0.891741 0.176 Uiso 0.25 1 calc R U P B 2
 C5 C 0.500000 0.6550(5) 0.8704(13) 0.160(5) Uani 0.5 2 d S T P B 2
 N5 N 0.8715(12) 0.6589(3) 0.500000 0.1827(15) Uani 0.5 2 d DS TU P C 1
 H5 H 0.772597 0.659762 0.499999 0.219 Uiso 0.5 2 calc R U P C 1
 C1 C 0.9281(9) 0.6828(4) 0.6279(6) 0.172(2) Uani 1 1 d . U . . .
 H1AA H 0.895971 0.721200 0.638844 0.206 Uiso 0.25 1 calc R U P C 1
 H1AB H 0.895973 0.661017 0.705363 0.206 Uiso 0.25 1 calc R U P C 1
 H1BC H 0.895971 0.721200 0.638844 0.206 Uiso 0.25 1 calc R U P C 2
 H1BD H 0.895973 0.661017 0.705363 0.206 Uiso 0.25 1 calc R U P C 2
 C2 C 0.8715(12) 0.6589(3) 0.500000 0.1827(15) Uani 0.5 2 d S TU P C 2
 C7 C 0.9245(3) 0.5999(3) 0.500000 0.192(2) Uani 1 2 d DS TU P . .
 H7AB H 0.891704 0.580202 0.419547 0.230 Uiso 0.25 1 calc R U P C 1
 H7AA H 0.891704 0.580202 0.580453 0.230 Uiso 0.25 1 calc R U P C 1
 H7BD H 0.891704 0.580202 0.419547 0.230 Uiso 0.25 1 calc R U P C 2
 H7BC H 0.891704 0.580202 0.580453 0.230 Uiso 0.25 1 calc R U P C 2

loop_
  _atom_site_aniso_label
  _atom_site_aniso_U_11
  _atom_site_aniso_U_22
  _atom_site_aniso_U_33
  _atom_site_aniso_U_23
  _atom_site_aniso_U_13
  _atom_site_aniso_U_12
 Ho1 0.03586(14) 0.04553(17) 0.03228(14) 0.000 0.000 0.000
 K1 0.0405(8) 0.0585(10) 0.0392(7) 0.000 0.000 0.000
 O1 0.121(5) 0.047(3) 0.111(5) 0.000 0.000 0.000
 O2 0.201(2) 0.196(2) 0.196(2) -0.005(2) 0.000(2) 0.009(2)
 O3 0.199(3) 0.195(3) 0.196(3) -0.008(3) 0.000 0.000
 O4 0.086(2) 0.139(3) 0.087(2) 0.000 -0.037(2) 0.000
 O5 0.062(3) 0.088(3) 0.050(3) 0.000 -0.006(3) 0.000
 O6 0.055(3) 0.079(3) 0.056(3) 0.000 -0.004(3) 0.000
 O7 0.200(3) 0.194(3) 0.197(3) -0.006(3) -0.001(3) 0.005(3)
 O8 0.067(2) 0.062(2) 0.063(2) -0.003(2) -0.001(2) -0.003(2)
 O9 0.062(2) 0.077(2) 0.0569(19) -0.0001(19) -0.0063(19) 0.004(2)
 N1 0.069(3) 0.047(2) 0.063(3) 0.000 0.000 0.000
 N2 0.201(2) 0.196(2) 0.196(2) -0.005(2) 0.000(2) 0.009(2)
 N4 0.0542(17) 0.088(2) 0.0517(16) 0.000 -0.0135(16) 0.000
 N3 0.137(8) 0.195(11) 0.150(9) -0.050(8) 0.000 0.000
 C3 0.241(7) 0.223(7) 0.245(7) -0.017(6) 0.000 0.000
 C4 0.089(4) 0.171(6) 0.180(7) 0.004(6) 0.008(4) -0.039(4)
 C5 0.137(8) 0.195(11) 0.150(9) -0.050(8) 0.000 0.000
 N5 0.263(3) 0.181(3) 0.104(3) 0.000 0.000 -0.073(3)
 C1 0.253(4) 0.179(4) 0.084(3) -0.018(3) 0.004(3) -0.059(4)
 C2 0.263(3) 0.181(3) 0.104(3) 0.000 0.000 -0.073(3)
 C7 0.277(4) 0.182(4) 0.117(4) 0.000 0.000 -0.075(4)

_geom_special_details
;
 All esds (except the esd in the dihedral angle between two l.s. planes)
 are estimated using the full covariance matrix.  The cell esds are taken
 into account individually in the estimation of esds in distances, angles
 and torsion angles; correlations between esds in cell parameters are only
 used when they are defined by crystal symmetry.  An approximate (isotropic)
 treatment of cell esds is used for estimating esds involving l.s. planes.
;
loop_
  _geom_bond_atom_site_label_1
  _geom_bond_atom_site_label_2
  _geom_bond_distance
  _geom_bond_site_symmetry_2
  _geom_bond_publ_flag
 Ho1 O5 2.531(7) 9_767 ?
 Ho1 O5 2.531(7) . ?
 Ho1 O5 2.531(7) 10_557 ?
 Ho1 O5 2.531(7) 2_765 ?
 Ho1 O6 2.523(7) 11_565 ?
 Ho1 O6 2.523(7) 10_557 ?
 Ho1 O6 2.523(7) . ?
 Ho1 O6 2.523(7) 9_767 ?
 Ho1 O6 2.523(7) 2_765 ?
 Ho1 O8 2.538(5) 9_767 ?
 Ho1 O8 2.538(5) 2_765 ?
 Ho1 O8 2.538(5) 10_557 ?
 Ho1 O8 2.538(5) 3_757 ?
 Ho1 O8 2.538(5) 4_567 ?
 Ho1 O8 2.538(5) . ?
 Ho1 O8 2.538(5) 11_565 ?
 Ho1 O8 2.538(5) 12_755 ?
 Ho1 O9 2.545(5) 11_565 ?
 Ho1 O9 2.545(5) 10_557 ?
 Ho1 O9 2.545(5) 9_767 ?
 Ho1 O9 2.545(5) . ?
 Ho1 O9 2.545(6) 12_755 ?
 Ho1 O9 2.545(6) 3_757 ?
 Ho1 O9 2.545(5) 2_765 ?
 K1 O2 3.130(14) 10_556 ?
 K1 O2 3.130(14) 3_656 ?
 K1 O2 3.130(14) 9_666 ?
 K1 O2 3.130(14) . ?
 K1 O2 3.130(14) 11_565 ?
 K1 O2 3.130(14) 2_665 ?
 K1 O2 3.130(14) 4_566 ?
 K1 O2 3.130(14) 12_655 ?
 K1 O3 2.90(2) . ?
 K1 O3 2.90(2) 2_665 ?
 K1 O3 2.90(2) 10_556 ?
 K1 O3 2.90(2) 9_666 ?
 K1 O4 2.753(5) . ?
 K1 O4 2.753(5) 10_556 ?
 K1 O4 2.753(5) 2_665 ?
 K1 O4 2.753(5) 9_666 ?
 K1 N2 3.130(14) . ?
 O1 N1 1.222(9) . ?
 O2 O2 0.75(3) 10_556 ?
 O2 O2 1.72(3) 12_655 ?
 O2 O3 1.08(2) . ?
 O2 O3 1.62(2) 10_556 ?
 O2 O7 1.39(3) . ?
 O2 O7 1.77(3) 10_556 ?
 O3 N2 1.08(2) . ?
 O4 N4 1.214(7) . ?
 O5 O5 1.800(16) 2_765 ?
 O5 N4 1.251(9) . ?
 O6 O6 0.00(2) 11_565 ?
 O6 O6 1.673(15) 10_557 ?
 O6 O9 1.524(8) 11_565 ?
 O6 N4 1.289(9) . ?
 O7 O7 1.61(5) 10_556 ?
 O7 N2 1.39(3) . ?
 O8 O8 1.501(11) 10_557 ?
 O8 O8 1.502(11) 12_755 ?
 O8 N1 1.247(6) . ?
 O9 N4 1.255(6) . ?
 N3 H3 0.9800 . ?
 N3 C3 1.55(2) . ?
 N3 C4 1.467(10) 12_655 ?
 N3 C4 1.467(10) . ?
 C3 C3 1.23(4) 10_557 ?
 C3 H3AB 0.9700 . ?
 C3 H3AA 0.9700 . ?
 C3 H3BD 0.9700 . ?
 C3 H3BC 0.9700 . ?
 C3 C5 1.55(2) . ?
 C4 C4 1.469(15) 10_557 ?
 C4 H4AA 0.9700 . ?
 C4 H4AB 0.9700 . ?
 C4 H4BC 0.9700 . ?
 C4 H4BD 0.9700 . ?
 C4 C5 1.467(10) . ?
 N5 H5 0.9800 . ?
 N5 C1 1.481(9) 10_556 ?
 N5 C1 1.481(9) . ?
 N5 C7 1.494(7) . ?
 C1 C1 1.424(18) 12_755 ?
 C1 H1AA 0.9700 . ?
 C1 H1AB 0.9700 . ?
 C1 H1BC 0.9700 . ?
 C1 H1BD 0.9700 . ?
 C1 C2 1.481(9) . ?
 C2 C7 1.494(7) . ?
 C7 C7 1.496(6) 12_755 ?
 C7 H7AB 0.9700 . ?
 C7 H7AA 0.9700 . ?
 C7 H7BD 0.9700 . ?
 C7 H7BC 0.9700 . ?

loop_
  _geom_angle_atom_site_label_1
  _geom_angle_atom_site_label_2
  _geom_angle_atom_site_label_3
  _geom_angle
  _geom_angle_site_symmetry_1
  _geom_angle_site_symmetry_3
  _geom_angle_publ_flag
 O5 Ho1 O5 41.7(4) 9_767 10_557 ?
 O5 Ho1 O5 138.3(4) 10_557 . ?
 O5 Ho1 O5 180.0(3) 9_767 . ?
 O5 Ho1 O5 138.3(4) 9_767 2_765 ?
 O5 Ho1 O5 180.0 10_557 2_765 ?
 O5 Ho1 O5 41.7(4) 2_765 . ?
 O5 Ho1 O8 112.43(13) 2_765 10_557 ?
 O5 Ho1 O8 112.43(13) 2_765 4_567 ?
 O5 Ho1 O8 67.57(13) . . ?
 O5 Ho1 O8 67.57(13) 2_765 2_765 ?
 O5 Ho1 O8 80.14(14) 9_767 10_557 ?
 O5 Ho1 O8 112.43(13) . 9_767 ?
 O5 Ho1 O8 99.86(14) 9_767 2_765 ?
 O5 Ho1 O8 112.43(13) 9_767 11_565 ?
 O5 Ho1 O8 80.14(14) 10_557 9_767 ?
 O5 Ho1 O8 99.86(15) 10_557 11_565 ?
 O5 Ho1 O8 99.86(14) 10_557 . ?
 O5 Ho1 O8 80.14(14) 2_765 11_565 ?
 O5 Ho1 O8 67.57(13) 10_557 4_567 ?
 O5 Ho1 O8 67.57(13) . 11_565 ?
 O5 Ho1 O8 99.86(15) . 4_567 ?
 O5 Ho1 O8 67.57(13) 9_767 3_757 ?
 O5 Ho1 O8 67.57(13) 10_557 10_557 ?
 O5 Ho1 O8 80.14(14) 10_557 3_757 ?
 O5 Ho1 O8 99.86(14) . 10_557 ?
 O5 Ho1 O8 99.86(15) 2_765 3_757 ?
 O5 Ho1 O8 112.43(13) 10_557 2_765 ?
 O5 Ho1 O8 112.43(13) . 3_757 ?
 O5 Ho1 O8 67.57(13) 9_767 9_767 ?
 O5 Ho1 O8 99.86(15) 9_767 12_755 ?
 O5 Ho1 O8 99.86(14) 2_765 9_767 ?
 O5 Ho1 O8 112.43(13) 10_557 12_755 ?
 O5 Ho1 O8 112.43(13) 9_767 . ?
 O5 Ho1 O8 67.57(13) 2_765 12_755 ?
 O5 Ho1 O8 80.14(14) 2_765 . ?
 O5 Ho1 O8 80.14(14) . 12_755 ?
 O5 Ho1 O8 80.14(14) 9_767 4_567 ?
 O5 Ho1 O8 80.14(14) . 2_765 ?
 O5 Ho1 O9 33.88(17) 2_765 12_755 ?
 O5 Ho1 O9 68.0(2) 10_557 9_767 ?
 O5 Ho1 O9 33.88(17) 10_557 10_557 ?
 O5 Ho1 O9 68.0(2) . 12_755 ?
 O5 Ho1 O9 146.12(17) 10_557 2_765 ?
 O5 Ho1 O9 112.0(2) . 10_557 ?
 O5 Ho1 O9 146.12(17) . 3_757 ?
 O5 Ho1 O9 146.12(17) 9_767 11_565 ?
 O5 Ho1 O9 146.12(17) . 9_767 ?
 O5 Ho1 O9 112.0(2) 10_557 11_565 ?
 O5 Ho1 O9 68.0(2) . 2_765 ?
 O5 Ho1 O9 68.0(2) 2_765 11_565 ?
 O5 Ho1 O9 112.0(2) 9_767 12_755 ?
 O5 Ho1 O9 33.88(17) . 11_565 ?
 O5 Ho1 O9 33.88(17) 9_767 9_767 ?
 O5 Ho1 O9 146.12(17) 9_767 . ?
 O5 Ho1 O9 112.0(2) 2_765 9_767 ?
 O5 Ho1 O9 112.0(2) 10_557 . ?
 O5 Ho1 O9 112.0(2) 9_767 2_765 ?
 O5 Ho1 O9 68.0(2) 2_765 . ?
 O5 Ho1 O9 33.88(17) 2_765 2_765 ?
 O5 Ho1 O9 33.88(17) . . ?
 O5 Ho1 O9 68.0(2) 9_767 10_557 ?
 O5 Ho1 O9 33.88(17) 9_767 3_757 ?
 O5 Ho1 O9 146.12(17) 2_765 10_557 ?
 O5 Ho1 O9 68.0(2) 10_557 3_757 ?
 O5 Ho1 O9 112.0(2) 2_765 3_757 ?
 O5 Ho1 O9 146.12(17) 10_557 12_755 ?
 O6 Ho1 O5 88.5(2) . 10_557 ?
 O6 Ho1 O5 88.5(2) 2_765 9_767 ?
 O6 Ho1 O5 49.8(2) 11_565 . ?
 O6 Ho1 O5 88.5(2) 11_565 10_557 ?
 O6 Ho1 O5 91.5(2) 2_765 . ?
 O6 Ho1 O5 88.5(2) 9_767 2_765 ?
 O6 Ho1 O5 49.8(2) 9_767 9_767 ?
 O6 Ho1 O5 130.2(2) 10_557 2_765 ?
 O6 Ho1 O5 130.2(2) 11_565 9_767 ?
 O6 Ho1 O5 49.8(2) 2_765 2_765 ?
 O6 Ho1 O5 91.5(2) 9_767 10_557 ?
 O6 Ho1 O5 91.5(2) . 2_765 ?
 O6 Ho1 O5 49.8(2) 10_557 10_557 ?
 O6 Ho1 O5 91.5(2) 11_565 2_765 ?
 O6 Ho1 O5 91.5(2) 10_557 9_767 ?
 O6 Ho1 O5 130.2(2) 2_765 10_557 ?
 O6 Ho1 O5 130.2(2) . 9_767 ?
 O6 Ho1 O5 130.2(2) 9_767 . ?
 O6 Ho1 O5 88.5(2) 10_557 . ?
 O6 Ho1 O5 49.8(2) . . ?
 O6 Ho1 O6 38.7(3) 10_557 11_565 ?
 O6 Ho1 O6 180.0 9_767 11_565 ?
 O6 Ho1 O6 38.7(3) 10_557 . ?
 O6 Ho1 O6 141.3(3) 2_765 11_565 ?
 O6 Ho1 O6 180.0 9_767 . ?
 O6 Ho1 O6 0.00(11) . 11_565 ?
 O6 Ho1 O6 141.3(3) 9_767 10_557 ?
 O6 Ho1 O6 38.7(3) 9_767 2_765 ?
 O6 Ho1 O6 180.0 10_557 2_765 ?
 O6 Ho1 O6 141.3(3) 2_765 . ?
 O6 Ho1 O8 67.84(13) 2_765 2_765 ?
 O6 Ho1 O8 79.57(14) 11_565 10_557 ?
 O6 Ho1 O8 79.57(14) 2_765 9_767 ?
 O6 Ho1 O8 100.43(14) 9_767 10_557 ?
 O6 Ho1 O8 112.16(13) 11_565 3_757 ?
 O6 Ho1 O8 100.43(14) 9_767 4_567 ?
 O6 Ho1 O8 100.43(14) . 12_755 ?
 O6 Ho1 O8 112.16(13) 2_765 4_567 ?
 O6 Ho1 O8 79.57(14) 2_765 3_757 ?
 O6 Ho1 O8 79.57(14) 10_557 . ?
 O6 Ho1 O8 67.84(13) 9_767 9_767 ?
 O6 Ho1 O8 100.43(14) 2_765 . ?
 O6 Ho1 O8 112.16(13) 10_557 12_755 ?
 O6 Ho1 O8 67.84(13) . . ?
 O6 Ho1 O8 112.16(13) . 9_767 ?
 O6 Ho1 O8 67.84(13) 11_565 . ?
 O6 Ho1 O8 100.43(14) 10_557 3_757 ?
 O6 Ho1 O8 79.57(14) 10_557 11_565 ?
 O6 Ho1 O8 112.16(13) . 3_757 ?
 O6 Ho1 O8 100.43(14) 2_765 11_565 ?
 O6 Ho1 O8 79.57(14) 9_767 2_765 ?
 O6 Ho1 O8 67.84(13) . 11_565 ?
 O6 Ho1 O8 100.43(14) 10_557 9_767 ?
 O6 Ho1 O8 67.84(13) 11_565 11_565 ?
 O6 Ho1 O8 79.57(14) 9_767 12_755 ?
 O6 Ho1 O8 100.43(14) 11_565 2_765 ?
 O6 Ho1 O8 67.84(13) 2_765 12_755 ?
 O6 Ho1 O8 67.84(13) 10_557 10_557 ?
 O6 Ho1 O8 100.43(14) 11_565 12_755 ?
 O6 Ho1 O8 112.16(13) 2_765 10_557 ?
 O6 Ho1 O8 112.16(13) 11_565 9_767 ?
 O6 Ho1 O8 79.57(14) . 10_557 ?
 O6 Ho1 O8 67.84(13) 9_767 3_757 ?
 O6 Ho1 O8 112.16(13) 10_557 2_765 ?
 O6 Ho1 O8 67.84(13) 10_557 4_567 ?
 O6 Ho1 O8 112.16(13) 9_767 11_565 ?
 O6 Ho1 O8 112.16(13) 9_767 . ?
 O6 Ho1 O8 79.57(14) . 4_567 ?
 O6 Ho1 O8 79.57(14) 11_565 4_567 ?
 O6 Ho1 O8 100.43(14) . 2_765 ?
 O6 Ho1 O9 66.9(2) 2_765 9_767 ?
 O6 Ho1 O9 113.1(2) 2_765 . ?
 O6 Ho1 O9 35.01(17) . 11_565 ?
 O6 Ho1 O9 144.99(17) . 9_767 ?
 O6 Ho1 O9 66.9(2) 11_565 10_557 ?
 O6 Ho1 O9 144.99(17) 11_565 9_767 ?
 O6 Ho1 O9 113.1(2) . 12_755 ?
 O6 Ho1 O9 35.01(17) . . ?
 O6 Ho1 O9 144.99(17) 2_765 10_557 ?
 O6 Ho1 O9 35.01(17) 11_565 . ?
 O6 Ho1 O9 144.99(17) . 3_757 ?
 O6 Ho1 O9 35.01(17) 11_565 11_565 ?
 O6 Ho1 O9 144.99(17) 10_557 12_755 ?
 O6 Ho1 O9 144.99(17) 9_767 11_565 ?
 O6 Ho1 O9 144.99(17) 9_767 . ?
 O6 Ho1 O9 66.9(2) 9_767 2_765 ?
 O6 Ho1 O9 35.01(17) 10_557 10_557 ?
 O6 Ho1 O9 144.99(17) 10_557 2_765 ?
 O6 Ho1 O9 66.9(2) . 10_557 ?
 O6 Ho1 O9 35.01(17) 2_765 2_765 ?
 O6 Ho1 O9 66.9(2) 2_765 3_757 ?
 O6 Ho1 O9 113.1(2) . 2_765 ?
 O6 Ho1 O9 144.99(17) 11_565 3_757 ?
 O6 Ho1 O9 113.1(2) 11_565 2_765 ?
 O6 Ho1 O9 66.9(2) 9_767 12_755 ?
 O6 Ho1 O9 66.9(2) 10_557 11_565 ?
 O6 Ho1 O9 35.01(17) 2_765 12_755 ?
 O6 Ho1 O9 113.1(2) 2_765 11_565 ?
 O6 Ho1 O9 113.1(2) 11_565 12_755 ?
 O6 Ho1 O9 35.01(17) 9_767 3_757 ?
 O6 Ho1 O9 66.9(2) 10_557 . ?
 O6 Ho1 O9 113.1(2) 10_557 3_757 ?
 O6 Ho1 O9 113.1(2) 10_557 9_767 ?
 O6 Ho1 O9 113.1(2) 9_767 10_557 ?
 O6 Ho1 O9 35.01(17) 9_767 9_767 ?
 O8 Ho1 O8 130.5(3) 4_567 10_557 ?
 O8 Ho1 O8 49.5(2) 11_565 9_767 ?
 O8 Ho1 O8 145.6(3) 3_757 2_765 ?
 O8 Ho1 O8 34.4(3) 11_565 4_567 ?
 O8 Ho1 O8 145.6(2) 10_557 9_767 ?
 O8 Ho1 O8 145.6(2) 3_757 4_567 ?
 O8 Ho1 O8 145.6(3) 11_565 10_557 ?
 O8 Ho1 O8 130.5(3) 11_565 . ?
 O8 Ho1 O8 145.6(3) 12_755 9_767 ?
 O8 Ho1 O8 49.5(3) 3_757 . ?
 O8 Ho1 O8 49.5(3) 12_755 10_557 ?
 O8 Ho1 O8 34.4(3) 12_755 . ?
 O8 Ho1 O8 180.0(2) 10_557 2_765 ?
 O8 Ho1 O8 145.6(3) 4_567 . ?
 O8 Ho1 O8 34.4(3) 3_757 10_557 ?
 O8 Ho1 O8 34.4(2) 10_557 . ?
 O8 Ho1 O8 130.5(3) 3_757 9_767 ?
 O8 Ho1 O8 145.6(2) 2_765 . ?
 O8 Ho1 O8 34.4(3) 4_567 9_767 ?
 O8 Ho1 O8 180.0 9_767 . ?
 O8 Ho1 O8 34.4(2) 2_765 9_767 ?
 O8 Ho1 O8 180.0 12_755 4_567 ?
 O8 Ho1 O8 34.4(3) 11_565 2_765 ?
 O8 Ho1 O8 180.00(10) 11_565 3_757 ?
 O8 Ho1 O8 130.5(3) 12_755 2_765 ?
 O8 Ho1 O8 145.6(2) 11_565 12_755 ?
 O8 Ho1 O8 34.4(3) 3_757 12_755 ?
 O8 Ho1 O8 49.5(2) 4_567 2_765 ?
 O8 Ho1 O9 67.75(18) 4_567 9_767 ?
 O8 Ho1 O9 90.13(18) 12_755 10_557 ?
 O8 Ho1 O9 67.82(18) 3_757 12_755 ?
 O8 Ho1 O9 112.18(18) 10_557 9_767 ?
 O8 Ho1 O9 90.13(18) 3_757 . ?
 O8 Ho1 O9 67.82(18) 2_765 9_767 ?
 O8 Ho1 O9 90.13(18) 11_565 9_767 ?
 O8 Ho1 O9 40.67(18) 9_767 9_767 ?
 O8 Ho1 O9 112.18(18) 9_767 10_557 ?
 O8 Ho1 O9 139.33(18) . 9_767 ?
 O8 Ho1 O9 112.18(18) 2_765 . ?
 O8 Ho1 O9 139.33(18) 11_565 3_757 ?
 O8 Ho1 O9 89.87(18) 9_767 3_757 ?
 O8 Ho1 O9 40.67(18) 3_757 3_757 ?
 O8 Ho1 O9 112.25(18) 11_565 10_557 ?
 O8 Ho1 O9 40.67(18) 11_565 11_565 ?
 O8 Ho1 O9 40.67(18) 10_557 10_557 ?
 O8 Ho1 O9 139.33(18) 3_757 11_565 ?
 O8 Ho1 O9 89.87(18) 3_757 9_767 ?
 O8 Ho1 O9 112.18(18) 12_755 11_565 ?
 O8 Ho1 O9 112.25(18) 4_567 . ?
 O8 Ho1 O9 67.82(18) 4_567 11_565 ?
 O8 Ho1 O9 40.67(18) . . ?
 O8 Ho1 O9 139.33(18) 4_567 12_755 ?
 O8 Ho1 O9 112.25(18) 2_765 3_757 ?
 O8 Ho1 O9 89.87(18) 2_765 12_755 ?
 O8 Ho1 O9 90.13(18) . 3_757 ?
 O8 Ho1 O9 67.75(18) . 12_755 ?
 O8 Ho1 O9 40.67(18) 12_755 12_755 ?
 O8 Ho1 O9 67.75(18) 11_565 2_765 ?
 O8 Ho1 O9 67.75(18) 3_757 10_557 ?
 O8 Ho1 O9 112.25(18) 3_757 2_765 ?
 O8 Ho1 O9 89.87(18) 4_567 10_557 ?
 O8 Ho1 O9 89.87(18) 12_755 2_765 ?
 O8 Ho1 O9 139.33(18) 2_765 10_557 ?
 O8 Ho1 O9 90.13(18) 4_567 2_765 ?
 O8 Ho1 O9 67.82(18) . 10_557 ?
 O8 Ho1 O9 40.67(18) 2_765 2_765 ?
 O8 Ho1 O9 89.87(18) 11_565 . ?
 O8 Ho1 O9 67.82(18) 9_767 2_765 ?
 O8 Ho1 O9 67.75(18) 12_755 . ?
 O8 Ho1 O9 112.18(18) . 2_765 ?
 O8 Ho1 O9 67.82(18) 10_557 . ?
 O8 Ho1 O9 89.87(18) . 11_565 ?
 O8 Ho1 O9 139.33(18) 9_767 . ?
 O8 Ho1 O9 67.82(18) 12_755 3_757 ?
 O8 Ho1 O9 112.18(18) 11_565 12_755 ?
 O8 Ho1 O9 112.18(18) 4_567 3_757 ?
 O8 Ho1 O9 112.25(18) 12_755 9_767 ?
 O8 Ho1 O9 67.75(18) 10_557 3_757 ?
 O8 Ho1 O9 90.13(18) 10_557 12_755 ?
 O8 Ho1 O9 112.25(18) 10_557 11_565 ?
 O8 Ho1 O9 112.25(18) 9_767 12_755 ?
 O8 Ho1 O9 67.75(18) 2_765 11_565 ?
 O8 Ho1 O9 90.13(18) 9_767 11_565 ?
 O8 Ho1 O9 139.33(18) 10_557 2_765 ?
 O9 Ho1 O9 130.8(3) . 3_757 ?
 O9 Ho1 O9 80.2(3) 3_757 12_755 ?
 O9 Ho1 O9 99.8(2) . 2_765 ?
 O9 Ho1 O9 130.8(3) 11_565 9_767 ?
 O9 Ho1 O9 99.8(2) 9_767 10_557 ?
 O9 Ho1 O9 49.2(3) 11_565 . ?
 O9 Ho1 O9 99.8(2) 11_565 12_755 ?
 O9 Ho1 O9 180.0 . 9_767 ?
 O9 Ho1 O9 49.2(3) 2_765 12_755 ?
 O9 Ho1 O9 49.2(3) 3_757 9_767 ?
 O9 Ho1 O9 180.0 2_765 10_557 ?
 O9 Ho1 O9 180.00(18) 11_565 3_757 ?
 O9 Ho1 O9 100.2(3) 3_757 2_765 ?
 O9 Ho1 O9 79.8(3) 11_565 2_765 ?
 O9 Ho1 O9 79.8(3) . 12_755 ?
 O9 Ho1 O9 100.2(3) 11_565 10_557 ?
 O9 Ho1 O9 100.2(3) 9_767 12_755 ?
 O9 Ho1 O9 80.2(2) . 10_557 ?
 O9 Ho1 O9 80.2(2) 9_767 2_765 ?
 O9 Ho1 O9 79.8(3) 3_757 10_557 ?
 O9 Ho1 O9 130.8(3) 10_557 12_755 ?
 O3 K1 O2 30.8(5) 10_556 . ?
 O3 K1 O2 159.9(4) 2_665 3_656 ?
 O3 K1 O2 30.8(5) 2_665 9_666 ?
 O3 K1 O2 149.2(5) 2_665 . ?
 O3 K1 O2 20.1(4) 2_665 11_565 ?
 O3 K1 O2 20.1(4) . . ?
 O3 K1 O2 20.1(4) 2_665 2_665 ?
 O3 K1 O2 159.9(4) 9_666 . ?
 O3 K1 O2 149.2(5) 9_666 3_656 ?
 O3 K1 O2 159.9(4) 2_665 10_556 ?
 O3 K1 O2 30.8(5) 9_666 11_565 ?
 O3 K1 O2 30.8(5) 10_556 12_655 ?
 O3 K1 O2 20.1(4) 9_666 9_666 ?
 O3 K1 O2 149.2(5) 2_665 12_655 ?
 O3 K1 O2 30.8(5) 9_666 2_665 ?
 O3 K1 O2 20.1(4) . 12_655 ?
 O3 K1 O2 30.8(5) . 3_656 ?
 O3 K1 O2 159.9(4) 9_666 12_655 ?
 O3 K1 O2 159.9(4) 10_556 11_565 ?
 O3 K1 O2 149.2(5) 10_556 4_566 ?
 O3 K1 O2 149.2(5) . 11_565 ?
 O3 K1 O2 30.8(5) 2_665 4_566 ?
 O3 K1 O2 149.2(5) 10_556 9_666 ?
 O3 K1 O2 159.9(4) . 4_566 ?
 O3 K1 O2 159.9(4) . 9_666 ?
 O3 K1 O2 20.1(4) 10_556 10_556 ?
 O3 K1 O2 159.9(4) 10_556 2_665 ?
 O3 K1 O2 30.8(5) . 10_556 ?
 O3 K1 O2 149.2(5) . 2_665 ?
 O3 K1 O2 149.2(5) 9_666 10_556 ?
 O3 K1 O2 20.1(4) 10_556 3_656 ?
 O3 K1 O2 20.1(4) 9_666 4_566 ?
 O3 K1 O3 140.8(9) 2_665 . ?
 O3 K1 O3 180.0(3) 10_556 2_665 ?
 O3 K1 O3 39.2(9) 10_556 . ?
 O3 K1 O3 140.8(9) 10_556 9_666 ?
 O3 K1 O3 39.2(9) 2_665 9_666 ?
 O3 K1 O3 180.0(9) . 9_666 ?
 O3 K1 N2 20.1(4) . . ?
 O3 K1 N2 30.8(5) 10_556 . ?
 O3 K1 N2 159.9(4) 9_666 . ?
 O3 K1 N2 149.2(5) 2_665 . ?
 O4 K1 O2 96.4(3) 9_666 . ?
 O4 K1 O2 73.8(3) 9_666 2_665 ?
 O4 K1 O2 73.8(3) . 10_556 ?
 O4 K1 O2 96.4(3) 2_665 4_566 ?
 O4 K1 O2 106.2(3) 9_666 4_566 ?
 O4 K1 O2 73.8(3) 2_665 9_666 ?
 O4 K1 O2 83.6(3) 2_665 2_665 ?
 O4 K1 O2 73.8(3) 10_556 11_565 ?
 O4 K1 O2 83.6(3) . 11_565 ?
 O4 K1 O2 106.2(3) 2_665 11_565 ?
 O4 K1 O2 83.6(3) . . ?
 O4 K1 O2 96.4(3) 9_666 11_565 ?
 O4 K1 O2 73.8(3) 10_556 . ?
 O4 K1 O2 96.4(3) 10_556 12_655 ?
 O4 K1 O2 106.2(3) . 2_665 ?
 O4 K1 O2 83.6(3) 2_665 12_655 ?
 O4 K1 O2 96.4(3) 10_556 2_665 ?
 O4 K1 O2 106.2(3) 9_666 10_556 ?
 O4 K1 O2 83.6(3) 10_556 4_566 ?
 O4 K1 O2 96.4(3) . 9_666 ?
 O4 K1 O2 106.2(3) 2_665 . ?
 O4 K1 O2 83.6(3) 9_666 9_666 ?
 O4 K1 O2 73.8(3) 9_666 12_655 ?
 O4 K1 O2 96.4(3) 2_665 10_556 ?
 O4 K1 O2 83.6(3) 10_556 10_556 ?
 O4 K1 O2 96.4(3) . 3_656 ?
 O4 K1 O2 106.2(3) 10_556 9_666 ?
 O4 K1 O2 83.6(3) 9_666 3_656 ?
 O4 K1 O2 106.2(3) . 12_655 ?
 O4 K1 O2 106.2(3) 10_556 3_656 ?
 O4 K1 O2 73.8(3) 2_665 3_656 ?
 O4 K1 O2 73.8(3) . 4_566 ?
 O4 K1 O3 76.3(3) . 9_666 ?
 O4 K1 O3 103.7(3) . 2_665 ?
 O4 K1 O3 76.3(3) 9_666 . ?
 O4 K1 O3 103.7(3) 9_666 9_666 ?
 O4 K1 O3 76.3(3) 10_556 2_665 ?
 O4 K1 O3 103.7(3) 10_556 9_666 ?
 O4 K1 O3 103.7(3) 2_665 . ?
 O4 K1 O3 76.3(3) 2_665 9_666 ?
 O4 K1 O3 76.3(3) 9_666 2_665 ?
 O4 K1 O3 76.3(3) . 10_556 ?
 O4 K1 O3 103.7(3) . . ?
 O4 K1 O3 103.7(3) 9_666 10_556 ?
 O4 K1 O3 76.3(3) 10_556 . ?
 O4 K1 O3 103.7(3) 10_556 10_556 ?
 O4 K1 O3 76.3(3) 2_665 10_556 ?
 O4 K1 O3 103.7(3) 2_665 2_665 ?
 O4 K1 O4 180.0 . 9_666 ?
 O4 K1 O4 89.7(2) . 10_556 ?
 O4 K1 O4 89.7(2) 9_666 2_665 ?
 O4 K1 O4 90.3(2) . 2_665 ?
 O4 K1 O4 90.3(2) 9_666 10_556 ?
 O4 K1 O4 180.0 10_556 2_665 ?
 O4 K1 N2 96.4(3) 9_666 . ?
 O4 K1 N2 83.6(3) . . ?
 O4 K1 N2 73.8(3) 10_556 . ?
 O4 K1 N2 106.2(3) 2_665 . ?
 O2 O2 K1 83.1(3) 10_556 . ?
 O2 O2 K1 74.0(2) 12_655 . ?
 O2 O2 O3 123.6(14) 10_556 . ?
 O2 O2 O7 108.0(13) 10_556 . ?
 O3 O2 K1 66.6(10) 10_556 . ?
 O3 O2 K1 67.6(15) . . ?
 O3 O2 O2 57.9(7) 10_556 12_655 ?
 O3 O2 O2 37.1(14) . 12_655 ?
 O3 O2 O3 89.9(19) . 10_556 ?
 O3 O2 O7 128.8(19) . 10_556 ?
 O3 O2 O7 67.6(12) 10_556 10_556 ?
 O3 O2 O7 99(2) . . ?
 O7 O2 K1 130.9(11) 10_556 . ?
 O7 O2 K1 166.3(14) . . ?
 O7 O2 O2 97.5(13) . 12_655 ?
 O7 O2 O3 118.5(17) . 10_556 ?
 O7 O2 O7 59.8(19) . 10_556 ?
 O2 O3 K1 92.2(16) 12_655 . ?
 O2 O3 K1 82.6(10) 10_556 . ?
 O2 O3 K1 92.2(16) . . ?
 O2 O3 K1 82.6(10) 3_656 . ?
 N2 O3 K1 92.2(16) . . ?
 N4 O4 K1 178.8(5) . . ?
 O5 O5 Ho1 69.17(18) 2_765 . ?
 N4 O5 Ho1 98.6(4) . . ?
 N4 O5 O5 167.7(4) . 2_765 ?
 O6 O6 Ho1 0.0(12) 11_565 . ?
 O6 O6 Ho1 70.63(17) 10_557 . ?
 O6 O6 O6 0(10) 11_565 10_557 ?
 O6 O6 O9 0(10) 11_565 11_565 ?
 O6 O6 N4 0(10) 11_565 . ?
 O9 O6 Ho1 73.3(3) 11_565 . ?
 O9 O6 O6 121.8(3) 11_565 10_557 ?
 N4 O6 Ho1 97.9(4) . . ?
 N4 O6 O6 168.5(4) . 10_557 ?
 N4 O6 O9 52.2(3) . 11_565 ?
 O7 O7 O2 48.3(10) 10_556 10_556 ?
 O8 O8 Ho1 72.80(12) 10_557 . ?
 O8 O8 Ho1 72.79(13) 12_755 . ?
 O8 O8 O8 90.001(2) 10_557 12_755 ?
 N1 O8 Ho1 96.9(4) . . ?
 N1 O8 O8 53.0(3) . 10_557 ?
 N1 O8 O8 53.0(3) . 12_755 ?
 N4 O9 Ho1 97.8(4) . . ?
 O1 N1 O8 121.7(3) . 12_755 ?
 O1 N1 O8 121.7(3) . . ?
 O1 N1 O8 121.7(3) . 10_557 ?
 O1 N1 O8 121.7(3) . 3_757 ?
 O8 N1 O8 74.0(6) 3_757 12_755 ?
 O8 N1 O8 74.0(6) . 12_755 ?
 O8 N1 O8 116.6(7) 12_755 10_557 ?
 O8 N1 O8 116.6(7) . 3_757 ?
 O8 N1 O8 74.0(6) . 10_557 ?
 O8 N1 O8 74.0(6) 3_757 10_557 ?
 O3 N2 K1 66.6(10) 10_556 . ?
 O3 N2 K1 67.6(15) . . ?
 O3 N2 O3 89.9(19) . 10_556 ?
 O3 N2 O7 128.8(19) . 10_556 ?
 O3 N2 O7 67.6(12) 10_556 10_556 ?
 O3 N2 O7 99(2) . . ?
 O7 N2 K1 130.9(11) 10_556 . ?
 O7 N2 K1 166.3(14) . . ?
 O7 N2 O3 118.5(17) . 10_556 ?
 O7 N2 O7 59.8(19) . 10_556 ?
 O4 N4 O5 124.1(6) . . ?
 O4 N4 O6 122.2(6) . . ?
 O4 N4 O6 122.2(6) . 11_565 ?
 O4 N4 O9 122.4(3) . 11_565 ?
 O4 N4 O9 122.4(3) . . ?
 O5 N4 O6 113.8(6) . . ?
 O5 N4 O6 113.8(6) . 11_565 ?
 O5 N4 O9 72.3(4) . . ?
 O5 N4 O9 72.3(4) . 11_565 ?
 O6 N4 O6 0.0(6) . 11_565 ?
 O9 N4 O6 73.6(4) . 11_565 ?
 O9 N4 O6 73.6(4) . . ?
 O9 N4 O6 73.6(4) 11_565 . ?
 O9 N4 O6 73.6(4) 11_565 11_565 ?
 O9 N4 O9 115.2(6) . 11_565 ?
 C3 N3 H3 112.3 . . ?
 C4 N3 H3 112.3 12_655 . ?
 C4 N3 H3 112.3 . . ?
 C4 N3 C3 103.0(8) 12_655 . ?
 C4 N3 C3 103.0(8) . . ?
 C4 N3 C4 113.1(10) 12_655 . ?
 N3 C3 H3AB 108.5 . . ?
 N3 C3 H3AA 108.5 . . ?
 C3 C3 N3 114.9(8) 10_557 . ?
 C3 C3 H3AB 108.5 10_557 . ?
 C3 C3 H3AA 108.5 10_557 . ?
 C3 C3 H3BD 108.5 10_557 . ?
 C3 C3 H3BC 108.5 10_557 . ?
 C3 C3 C5 114.9(8) 10_557 . ?
 H3AB C3 H3AA 107.5 . . ?
 H3BD C3 H3BC 107.5 . . ?
 C5 C3 H3BD 108.5 . . ?
 C5 C3 H3BC 108.5 . . ?
 N3 C4 C4 111.2(6) . 10_557 ?
 N3 C4 H4AA 109.4 . . ?
 N3 C4 H4AB 109.4 . . ?
 C4 C4 H4AA 109.4 10_557 . ?
 C4 C4 H4AB 109.4 10_557 . ?
 C4 C4 H4BC 109.4 10_557 . ?
 C4 C4 H4BD 109.4 10_557 . ?
 H4AA C4 H4AB 108.0 . . ?
 H4BC C4 H4BD 108.0 . . ?
 C5 C4 H4BC 109.4 . . ?
 C5 C4 H4BD 109.4 . . ?
 C4 C5 C3 103.0(8) . . ?
 C4 C5 C3 103.0(8) 12_655 . ?
 C4 C5 C4 113.1(10) 12_655 . ?
 C1 N5 H5 111.7 . . ?
 C1 N5 H5 111.7 10_556 . ?
 C1 N5 C1 114.8(9) . 10_556 ?
 C1 N5 C7 103.1(6) 10_556 . ?
 C1 N5 C7 103.1(6) . . ?
 C7 N5 H5 111.7 . . ?
 N5 C1 H1AA 109.2 . . ?
 N5 C1 H1AB 109.2 . . ?
 C1 C1 N5 112.2(6) 12_755 . ?
 C1 C1 H1AA 109.2 12_755 . ?
 C1 C1 H1AB 109.2 12_755 . ?
 C1 C1 H1BC 109.2 12_755 . ?
 C1 C1 H1BD 109.2 12_755 . ?
 C1 C1 C2 112.2(6) 12_755 . ?
 H1AA C1 H1AB 107.9 . . ?
 H1BC C1 H1BD 107.9 . . ?
 C2 C1 H1BC 109.2 . . ?
 C2 C1 H1BD 109.2 . . ?
 C1 C2 C1 114.8(9) . 10_556 ?
 C1 C2 C7 103.1(6) 10_556 . ?
 C1 C2 C7 103.1(6) . . ?
 N5 C7 C7 110.5(5) . 12_755 ?
 N5 C7 H7AB 109.5 . . ?
 N5 C7 H7AA 109.5 . . ?
 C2 C7 H7BD 109.5 . . ?
 C2 C7 H7BC 109.5 . . ?
 C7 C7 H7AB 109.5 12_755 . ?
 C7 C7 H7AA 109.5 12_755 . ?
 C7 C7 H7BD 109.5 12_755 . ?
 C7 C7 H7BC 109.5 12_755 . ?
 H7AB C7 H7AA 108.1 . . ?
 H7BD C7 H7BC 108.1 . . ?

loop_
  _geom_hbond_atom_site_label_D
  _geom_hbond_atom_site_label_H
  _geom_hbond_atom_site_label_A
  _geom_hbond_distance_DH
  _geom_hbond_distance_HA
  _geom_hbond_distance_DA
  _geom_hbond_angle_DHA
  _geom_hbond_site_symmetry_A
  _geom_hbond_publ_flag
 N3 H3 O3 0.98 1.89 2.81(3) 154.1 9_666 yes
 N3 H3 O7 0.98 2.21 3.06(3) 144.5 9_666 yes
 N3 H3 O7 0.98 2.21 3.06(3) 144.5 4_566 yes
 C3 H3BD O6 0.97 2.53 3.440(12) 155.7 2_665 yes
 C3 H3BC O6 0.97 2.53 3.440(12) 155.7 . yes
 N5 H5 O7 0.98 1.91 2.81(3) 150.8 11_565 yes
 N5 H5 O7 0.98 1.91 2.81(3) 150.8 4_566 yes
 C1 H1BC O7 0.97 2.38 3.27(3) 152.8 7_656 yes
 C1 H1BD O8 0.97 2.62 3.526(9) 154.7 . yes
 C7 H7BD O5 0.97 2.58 3.459(7) 151.3 10_556 yes
 C7 H7BD O9 0.97 2.66 3.606(6) 166.4 10_556 yes
 C7 H7BC O5 0.97 2.58 3.459(7) 151.3 . yes
 C7 H7BC O9 0.97 2.66 3.606(6) 166.4 . yes

loop_
  _geom_torsion_atom_site_label_1
  _geom_torsion_atom_site_label_2
  _geom_torsion_atom_site_label_3
  _geom_torsion_atom_site_label_4
  _geom_torsion
  _geom_torsion_site_symmetry_1
  _geom_torsion_site_symmetry_2
  _geom_torsion_site_symmetry_3
  _geom_torsion_site_symmetry_4
  _geom_torsion_publ_flag
 Ho1 O5 N4 O4 180.000(1) . . . . ?
 Ho1 O5 N4 O6 0.000(2) . . . . ?
 Ho1 O5 N4 O6 0.000(2) . . . 11_565 ?
 Ho1 O5 N4 O9 62.4(3) . . . . ?
 Ho1 O5 N4 O9 -62.4(3) . . . 11_565 ?
 Ho1 O6 N4 O4 180.000(1) . . . . ?
 Ho1 O6 N4 O5 0.000(2) . . . . ?
 Ho1 O6 N4 O6 0(66) . . . 11_565 ?
 Ho1 O6 N4 O9 61.6(3) . . . 11_565 ?
 Ho1 O6 N4 O9 -61.6(3) . . . . ?
 Ho1 O8 N1 O1 180.000(1) . . . . ?
 Ho1 O8 N1 O8 0.000(2) . . . 3_757 ?
 Ho1 O8 N1 O8 -62.3(3) . . . 10_557 ?
 Ho1 O8 N1 O8 62.3(3) . . . 12_755 ?
 Ho1 O9 N4 O4 178.8(5) . . . . ?
 Ho1 O9 N4 O5 -61.6(4) . . . . ?
 Ho1 O9 N4 O6 60.7(4) . . . . ?
 Ho1 O9 N4 O6 60.7(4) . . . 11_565 ?
 Ho1 O9 N4 O9 -1.7(7) . . . 11_565 ?
 K1 O2 O3 O2 -93(2) . . . 12_655 ?
 K1 O2 O3 O2 -64.6(12) . . . 10_556 ?
 K1 O2 O3 O2 -82.4(10) . . . 3_656 ?
 K1 O2 O7 O2 -143(6) . . . 10_556 ?
 K1 O2 O7 O7 -143(6) . . . 10_556 ?
 K1 O3 N2 O3 64.6(12) . . . 10_556 ?
 K1 O3 N2 O7 -176.5(14) . . . . ?
 K1 O3 N2 O7 125.2(19) . . . 10_556 ?
 O2 O2 O3 K1 64.6(12) 10_556 . . . ?
 O2 O2 O3 K1 93(2) 12_655 . . . ?
 O2 O2 O3 O2 10.6(13) 12_655 . . 3_656 ?
 O2 O2 O3 O2 28(3) 12_655 . . 10_556 ?
 O2 O2 O3 O2 -28(3) 10_556 . . 12_655 ?
 O2 O2 O3 O2 -17.8(19) 10_556 . . 3_656 ?
 O2 O2 O7 O2 -92.5(5) 12_655 . . 10_556 ?
 O2 O2 O7 O7 0.002(11) 10_556 . . 10_556 ?
 O2 O2 O7 O7 -92.5(5) 12_655 . . 10_556 ?
 O3 O2 O3 K1 64.6(12) 10_556 . . . ?
 O3 O2 O3 O2 -28(3) 10_556 . . 12_655 ?
 O3 O2 O3 O2 -17.8(19) 10_556 . . 3_656 ?
 O3 O2 O3 O2 -0.001(11) 10_556 . . 10_556 ?
 O3 O2 O7 O2 -35.1(10) 10_556 . . 10_556 ?
 O3 O2 O7 O2 -129.9(16) . . . 10_556 ?
 O3 O2 O7 O7 -129.9(16) . . . 10_556 ?
 O3 O2 O7 O7 -35.1(10) 10_556 . . 10_556 ?
 O5 O5 N4 O4 180.000(5) 2_765 . . . ?
 O5 O5 N4 O6 0.000(6) 2_765 . . 11_565 ?
 O5 O5 N4 O6 0.000(6) 2_765 . . . ?
 O5 O5 N4 O9 -62.4(3) 2_765 . . 11_565 ?
 O5 O5 N4 O9 62.4(3) 2_765 . . . ?
 O6 O6 N4 O4 0(100) 11_565 . . . ?
 O6 O6 N4 O4 180.000(7) 10_557 . . . ?
 O6 O6 N4 O5 0(3) 11_565 . . . ?
 O6 O6 N4 O5 0.000(8) 10_557 . . . ?
 O6 O6 N4 O6 0(66) 10_557 . . 11_565 ?
 O6 O6 N4 O9 0(3) 11_565 . . 11_565 ?
 O6 O6 N4 O9 61.6(3) 10_557 . . 11_565 ?
 O6 O6 N4 O9 -61.6(3) 10_557 . . . ?
 O6 O6 N4 O9 0(3) 11_565 . . . ?
 O7 O2 O3 K1 125.2(19) 10_556 . . . ?
 O7 O2 O3 K1 -176.5(14) . . . . ?
 O7 O2 O3 O2 60.6(18) 10_556 . . 10_556 ?
 O7 O2 O3 O2 91(2) . . . 12_655 ?
 O7 O2 O3 O2 101.1(15) . . . 3_656 ?
 O7 O2 O3 O2 43(3) 10_556 . . 3_656 ?
 O7 O2 O3 O2 32(4) 10_556 . . 12_655 ?
 O7 O2 O3 O2 118.8(18) . . . 10_556 ?
 O7 O2 O7 O2 0.00(2) 10_556 . . 10_556 ?
 O7 O7 N2 K1 -143(6) 10_556 . . . ?
 O7 O7 N2 O3 -35.1(10) 10_556 . . 10_556 ?
 O7 O7 N2 O3 -129.9(16) 10_556 . . . ?
 O8 O8 N1 O1 117.7(3) 12_755 . . . ?
 O8 O8 N1 O1 -117.7(3) 10_557 . . . ?
 O8 O8 N1 O8 124.6(5) 10_557 . . 12_755 ?
 O8 O8 N1 O8 -124.6(5) 12_755 . . 10_557 ?
 O8 O8 N1 O8 -62.3(3) 12_755 . . 3_757 ?
 O8 O8 N1 O8 62.3(3) 10_557 . . 3_757 ?
 O9 O6 N4 O4 118.4(3) 11_565 . . . ?
 O9 O6 N4 O5 -61.6(3) 11_565 . . . ?
 O9 O6 N4 O6 0(100) 11_565 . . 11_565 ?
 O9 O6 N4 O9 -123.3(6) 11_565 . . . ?
 C3 N3 C4 C4 -56.4(8) . . . 10_557 ?
 C3 C3 C5 C4 -58.9(6) 10_557 . . 12_655 ?
 C3 C3 C5 C4 58.9(6) 10_557 . . . ?
 C4 N3 C3 C3 58.9(6) . . . 10_557 ?
 C4 N3 C3 C3 -58.9(6) 12_655 . . 10_557 ?
 C4 N3 C4 C4 54.0(11) 12_655 . . 10_557 ?
 C4 C4 C5 C3 -56.4(8) 10_557 . . . ?
 C4 C4 C5 C4 54.0(11) 10_557 . . 12_655 ?
 C1 N5 C1 C1 -50.2(9) 10_556 . . 12_755 ?
 C1 N5 C7 C7 -59.9(6) . . . 12_755 ?
 C1 N5 C7 C7 59.9(6) 10_556 . . 12_755 ?
 C1 C1 C2 C1 -50.2(9) 12_755 . . 10_556 ?
 C1 C1 C2 C7 61.1(6) 12_755 . . . ?
 C1 C2 C7 C7 59.9(6) 10_556 . . 12_755 ?
 C1 C2 C7 C7 -59.9(6) . . . 12_755 ?
 C7 N5 C1 C1 61.1(6) . . . 12_755 ?

_shelx_res_file
;
TITL mo_Q_KHo_300K_0m_a.res in Cmmm
    mo_q_kho_300k_0m_a.res
    created by SHELXL-2019/3 at 20:41:48 on 15-Nov-2024
REM Old TITL Integration of Q_KHo_300K
REM SHELXT solution in Cmmm: R1 0.089, Rweak 0.219, Alpha 0.097
REM <I/s> 0.000 for 0 systematic absences, Orientation as input
REM Formula found by SHELXT: C58 H7aa K N10 O6
CELL 0.71073 9.9035 23.7203 9.7599 90 90 90
ZERR 2 0.0042 0.0102 0.0038 0 0 0
LATT 7
SYMM -X,-Y,+Z
SYMM -X,+Y,-Z
SYMM +X,-Y,-Z
SFAC C H Ho K N O
UNIT 56 72 2 2 24 48
EQIV $1 +X,1-Y,+Z
EQIV $2 1.5-X,0.5+Y,1-Z
EQIV $3 2-X,+Y,+Z
EQIV $4 1-X,1-Y,1-Z
EQIV $5 1-X,1-Y,+Z
EQIV $6 +X,+Y,1-Z
EQIV $7 +X,1-Y,1-Z
EADP N5 C2
SIMU 0.01 0.02 2 Ho1 > N4
ISOR 0.01 0.02 O4
EADP N3 C5
EADP N2 O2
ISOR 0.01 0.02 C3
DFIX 1.5 0.01 C7 C7_$3
DFIX 1.5 0.01 N5 C7
SIMU 0.01 0.02 2 C7 N5 C1 C2
ISOR 0.01 0.02 O2 O3 O7 N2
EXYZ N5 C2
EXYZ N3 C5
EXYZ N2 O2

L.S. 10
PLAN  5
SIZE 0.1 0.1 0.11
TEMP 5.85
HTAB N3 O3_$4
HTAB N3 O7_$4
HTAB N3 O7_$7
HTAB C3 O6_$5
HTAB C3 O6
HTAB N5 O7_$1
HTAB N5 O7_$7
HTAB C1 O7_$2
HTAB C1 O8
HTAB C7 O5_$6
HTAB C7 O9_$6
HTAB C7 O5
HTAB C7 O9
CONF
FREE O9 O6_$1
FREE O9 O6
FREE O9 O8
FREE O5 O9_$1
FREE O5 O9
BIND C7 C7_$3
CONN 24 Ho1
CONN 24 K1
LIST 4
MORE -1
BOND $H
HTAB
fmap 2
acta
REM <olex2.extras>
REM <HklSrc "%.\\mo_Q_KHo_300K_0m_a.hkl">
REM </olex2.extras>

WGHT    0.100700   10.300400
FVAR       0.28642
HO1   3    1.000000    0.500000    1.000000    10.12500    0.03586    0.04553 =
         0.03228    0.00000    0.00000    0.00000
K1    4    0.500000    0.500000    0.500000    10.12500    0.04050    0.05851 =
         0.03923    0.00000    0.00000    0.00000
O1    6    1.000000    0.676322    1.000000    10.25000    0.12070    0.04693 =
         0.11086    0.00000    0.00000    0.00000
PART 4
O2    6    0.586929    0.374108    0.461668    10.25000    0.20076    0.19556 =
         0.19617   -0.00538   -0.00039    0.00940
PART 0
O3    6    0.500000    0.384929    0.400476    10.25000    0.19866    0.19496 =
         0.19588   -0.00815    0.00000    0.00000
O4    6    0.697026    0.500000    0.698938    10.50000    0.08620    0.13853 =
         0.08677    0.00000   -0.03664    0.00000
O5    6    0.909133    0.500000    0.757645    10.25000    0.06209    0.08780 =
         0.04987    0.00000   -0.00595    0.00000
O6    6    0.759683    0.500000    0.914270    10.25000    0.05512    0.07911 =
         0.05593    0.00000   -0.00372    0.00000
O7    6    0.605303    0.318861    0.417517    10.25000    0.20011    0.19419 =
         0.19743   -0.00625   -0.00085    0.00457
O8    6    0.924180    0.597171    0.923116    10.50000    0.06672    0.06189 =
         0.06333   -0.00314   -0.00052   -0.00275
O9    6    0.835114    0.544656    0.832046    10.50000    0.06195    0.07743 =
         0.05688   -0.00009   -0.00630    0.00390
N1    5    1.000000    0.624786    1.000000    10.25000    0.06884    0.04692 =
         0.06280    0.00000    0.00000    0.00000
PART 3
N2    5    0.586929    0.374108    0.461668    10.25000    0.20076    0.19556 =
         0.19617   -0.00538   -0.00039    0.00940
PART 0
N4    5    0.785649    0.500000    0.784857    10.50000    0.05417    0.08807 =
         0.05173    0.00000   -0.01347    0.00000

PART 1
N3    5    0.500000    0.654956    0.870364    10.25000    0.13681    0.19491 =
         0.14955   -0.04962    0.00000    0.00000
AFIX  13
H3    2    0.499998    0.653111    0.770053    10.25000   -1.20000
AFIX   0
PART 0
C3    1    0.500000    0.595855    0.937005    10.50000    0.24113    0.22267 =
         0.24464   -0.01713    0.00000    0.00000
PART 1
AFIX  23
H3AB  2    0.420995    0.575482    0.905397    10.25000   -1.20000
H3AA  2    0.579005    0.575482    0.905397    10.25000   -1.20000
AFIX  23
PART 2
H3BD  2    0.420995    0.575482    0.905397    10.25000   -1.20000
H3BC  2    0.579005    0.575482    0.905397    10.25000   -1.20000
AFIX   0
PART 0
C4    1    0.623604    0.680689    0.924741    11.00000    0.08905    0.17108 =
         0.18018    0.00394    0.00810   -0.03905
PART 1
AFIX  23
H4AA  2    0.630747    0.719148    0.891746    10.25000   -1.20000
H4AB  2    0.701474    0.659931    0.891741    10.25000   -1.20000
AFIX  23
PART 2
H4BC  2    0.630747    0.719148    0.891746    10.25000   -1.20000
H4BD  2    0.701474    0.659931    0.891741    10.25000   -1.20000
AFIX   0
C5    1    0.500000    0.654956    0.870364    10.25000    0.13681    0.19491 =
         0.14955   -0.04962    0.00000    0.00000

PART 1
N5    5    0.871530    0.658905    0.500000    10.25000    0.26321    0.18125 =
         0.10375    0.00000    0.00000   -0.07338
AFIX  13
H5    2    0.772597    0.659762    0.499999    10.25000   -1.20000
AFIX   0
PART 0
C1    1    0.928118    0.682836    0.627892    11.00000    0.25270    0.17913 =
         0.08413   -0.01773    0.00387   -0.05895
PART 1
AFIX  23
H1AA  2    0.895971    0.721200    0.638844    10.25000   -1.20000
H1AB  2    0.895973    0.661017    0.705363    10.25000   -1.20000
AFIX  23
PART 2
H1BC  2    0.895971    0.721200    0.638844    10.25000   -1.20000
H1BD  2    0.895973    0.661017    0.705363    10.25000   -1.20000
AFIX   0
C2    1    0.871530    0.658905    0.500000    10.25000    0.26321    0.18125 =
         0.10375    0.00000    0.00000   -0.07338
PART 0
C7    1    0.924464    0.599934    0.500000    10.50000    0.27695    0.18161 =
         0.11676    0.00000    0.00000   -0.07457
PART 1
AFIX  23
H7AB  2    0.891704    0.580202    0.419547    10.25000   -1.20000
H7AA  2    0.891704    0.580202    0.580453    10.25000   -1.20000
AFIX  23
PART 2
H7BD  2    0.891704    0.580202    0.419547    10.25000   -1.20000
H7BC  2    0.891704    0.580202    0.580453    10.25000   -1.20000
AFIX   0
HKLF 4




REM  mo_Q_KHo_300K_0m_a.res in Cmmm
REM wR2 = 0.1636, GooF = S = 1.071, Restrained GooF = 1.066 for all data
REM R1 = 0.0596 for 1642 Fo > 4sig(Fo) and 0.0658 for all 1741 data
REM 123 parameters refined using 158 restraints

END

WGHT      0.1006      8.4538

REM Instructions for potential hydrogen bonds
HTAB N3 O3_$4
HTAB N3 O7_$4
HTAB N3 O7_$7
HTAB C3 O6_$5
HTAB C3 O6
HTAB C3 O6_$5
HTAB C3 O6
HTAB N5 O7_$1
HTAB N5 O7_$7
HTAB C1 O7_$2
HTAB C1 O8
HTAB C1 O7_$2
HTAB C1 O8
HTAB C7 O5_$6
HTAB C7 O9_$6
HTAB C7 O5
HTAB C7 O9
HTAB C7 O5_$6
HTAB C7 O9_$6
HTAB C7 O5
HTAB C7 O9

REM Highest difference peak  1.854,  deepest hole -1.029,  1-sigma level  0.159
Q1    1   1.0000  0.5898  0.5000  10.25000  0.05    1.85
Q2    1   0.5000  0.5854  1.0000  10.25000  0.05    1.46
Q3    1   0.9215  0.6420  0.5000  10.50000  0.05    1.30
Q4    1   0.5000  0.6016  0.8625  10.50000  0.05    1.14
Q5    1   0.6194  0.6103  1.0000  10.50000  0.05    1.00
;
_shelx_res_checksum                5113
_shelx_hkl_file
;
   2   0   0 7500.08  368.66
   2   0   0 7663.85  480.14
  -2   0   0 7475.77  367.17
  -2   0   0 8336.38  486.99
   4   0   0  866.50   44.09
   4   0   0  849.55   42.90
  -4   0   0  843.99   43.92
  -4   0   0  865.75   42.94
  -6   0   0  713.81   40.74
  -6   0   0  724.46   39.47
   6   0   0  697.25   40.60
   6   0   0  714.36   39.24
   8   0   0  343.37   27.52
   8   0   0  396.14   26.23
  -8   0   0  378.55   26.46
  -8   0   0  352.33   27.29
  10   0   0  202.32   21.10
 -10   0   0  212.32   22.04
  12   0   0   85.83   17.08
  12   0   0   63.73   18.42
 -12   0   0   89.06   18.25
   1  -1   0 1914.14  141.13
  -1   1   0 1688.41  135.26
   1   1   0 1452.63   91.98
  -1  -1   0 1957.20  165.34
   1   1   0 1921.75  160.17
  -1   1   0 1760.34   92.94
  -3  -1   0  212.23   12.32
   3   1   0  191.87   12.15
  -3   1   0  193.62   12.24
   3  -1   0  174.39   12.27
   3  -1   0  184.55   12.09
  -3  -1   0  178.57   12.76
   3   1   0  177.42   12.82
  -3   1   0  182.69   12.26
   5   1   0  255.67   18.25
  -5  -1   0  246.26   16.61
  -5  -1   0  242.76   17.79
   5  -1   0  244.17   17.36
   5  -1   0  226.62   16.19
  -5   1   0  227.13   16.22
  -5   1   0  246.03   17.31
   5   1   0  201.33   15.60
  -7   1   0  110.61   14.88
  -7  -1   0   91.99   13.00
   7  -1   0   84.90   12.52
   7  -1   0   44.34    9.72
  -7  -1   0   85.16   13.73
   7   1   0   72.90   11.89
  -7   1   0   68.71   11.37
   7   1   0   66.79   12.23
   9  -1   0  112.14   17.27
  -9  -1   0   94.30   16.34
  -9   1   0  108.43   16.48
  -9   1   0  131.30   18.09
   9   1   0   97.28   16.56
   9   1   0  105.79   16.33
   9  -1   0  149.84   14.54
  11   1   0   84.88   20.71
  11  -1   0   61.94   14.31
  11   1   0   83.61   17.06
  11   1   0   79.59   14.53
 -11   1   0   86.33   17.18
 -11  -1   0   92.33   18.46
  11  -1   0   79.44   16.29
  13   1   0   10.77   12.47
  13  -1   0   57.33   15.44
  13   1   0   17.52   11.18
  13  -1   0   14.16   12.65
   2   2   0    9.07    3.11
  -2   2   0    4.82    2.00
  -2   2   0    9.97    2.73
   2   2   0   11.68    2.83
   2  -2   0    7.63    2.45
  -2  -2   0    8.45    3.23
   2  -2   0   11.95    3.04
  -4  -2   0 2750.64  172.76
  -4   2   0 2642.29  173.81
  -4  -2   0 2356.72  360.69
   4   2   0 2388.60  169.77
  -4   2   0 2460.60  305.26
   4   2   0 3035.20  375.43
   4  -2   0 2096.18  325.77
   4  -2   0 2451.81  170.78
   6   2   0  772.05   43.41
   6   2   0  728.03   40.62
  -6  -2   0  717.56   42.78
   6  -2   0  736.88   40.56
   6  -2   0  739.90   41.69
  -6   2   0  730.58   41.42
  -6   2   0  763.63   41.27
  -6  -2   0  787.00   41.21
  -8  -2   0  188.09   22.90
  -8   2   0  193.00   17.45
  -8   2   0  179.12   17.60
   8  -2   0  169.32   16.60
   8  -2   0  183.18   18.00
   8   2   0  205.24   17.21
   8   2   0  225.76   20.19
  10   2   0  163.02   17.16
  10   2   0  178.38   29.10
  10  -2   0  206.91   25.17
  10  -2   0  177.98   18.47
 -10  -2   0  212.08   27.03
 -10   2   0  154.77   21.89
 -10   2   0  194.24   19.60
  10   2   0  213.71   27.14
  12   2   0   88.29   20.67
  12  -2   0   72.36   15.98
  12  -2   0   64.67   18.65
  12   2   0   83.57   18.12
 -12  -2   0   74.58   20.56
  12  -2   0   65.46   15.91
   1  -3   0 1442.87   80.55
  -1  -3   0 1531.56   88.84
   1   3   0 1483.79   89.30
  -1  -3   0 1948.55  213.14
  -1   3   0 1509.89   80.95
   1   3   0 1700.33  212.61
  -1   3   0 1556.69  221.71
   3  -3   0   78.59    7.07
  -3   3   0   77.21    7.44
   3  -3   0   80.23    7.27
   3   3   0   72.30    6.78
  -3  -3   0   84.04   10.40
  -3   3   0   70.78    6.68
   3   3   0   75.92    9.76
  -5  -3   0  258.66   19.56
   5  -3   0  254.86   17.96
   5   3   0  261.24   17.69
  -5   3   0  257.50   17.73
   5   3   0  261.70   19.71
  -5   3   0  263.44   18.24
   5  -3   0  266.26   17.69
  -7   3   0  244.26   18.90
  -7  -3   0  232.80   20.20
   7  -3   0  203.55   17.49
   7  -3   0  216.96   18.49
   7   3   0  235.82   20.50
  -7   3   0  227.10   18.45
   7   3   0  221.32   17.82
   9   3   0  190.11   24.78
   9   3   0  179.36   27.40
  -9   3   0  163.13   17.29
   9  -3   0  184.96   18.78
  -9   3   0  182.50   18.46
  -9  -3   0  207.93   20.31
   9   3   0  154.09   16.80
   9  -3   0  188.74   17.81
  11  -3   0   13.63    8.26
  11   3   0   10.75    7.98
 -11  -3   0   40.30   12.63
 -11   3   0   22.20    9.48
  11   3   0   10.05    8.74
  11  -3   0   25.55    9.04
  11   3   0   32.90   13.08
  13  -3   0   12.37    9.12
  13   3   0   24.52   11.97
  13   3   0   13.86   13.05
  13  -3   0   21.30   11.80
   0   4   0   61.52    7.09
   0  -4   0   48.65    6.76
   2   4   0  665.64   37.64
  -2  -4   0  728.25   36.20
  -4   4   0 1362.16   65.12
   4   4   0 1378.56   67.37
  -4  -4   0 1269.31   66.58
  -6   4   0  371.51   24.39
   6   4   0  363.47   24.26
   6  -4   0  384.46   24.98
   6  -4   0  354.23   23.99
  -6  -4   0  430.62   27.90
  -6   4   0  399.29   25.36
   6   4   0  385.63   27.21
  -8   4   0  229.79   19.67
  -8  -4   0  227.90   21.67
   8   4   0  209.31   29.37
   8   4   0  241.87   19.69
   8   4   0  232.36   21.67
  -8   4   0  174.82   17.45
   8  -4   0  241.94   20.32
   8  -4   0  207.64   18.28
 -10   4   0  143.43   20.95
 -10  -4   0  186.19   25.66
  10  -4   0  173.50   22.31
  10  -4   0  165.24   20.99
  10   4   0  130.95   25.25
  10   4   0  158.18   23.81
  10   4   0  186.33   23.19
  12  -4   0   52.35   13.64
  12   4   0   54.11   18.39
  12  -4   0   64.52   14.88
  12   4   0   55.05   14.58
 -12   4   0   66.29   14.81
  -1  -5   0  927.26   48.41
   1   5   0  989.20   47.29
   3   5   0 1050.11   55.62
   3   5   0 1053.43   53.11
  -3  -5   0 1035.55   53.05
   3  -5   0 1017.67   50.04
   3  -5   0 1039.00   50.67
  -5  -5   0  556.16   34.63
   5   5   0  464.04   36.07
   5   5   0  565.10   31.62
   5   5   0  578.83   35.03
   5  -5   0  549.35   31.73
   5  -5   0  600.95   32.19
  -5   5   0  614.24   33.26
   7  -5   0  122.97   15.71
   7   5   0  143.44   13.21
  -7   5   0  134.07   14.18
   7   5   0  124.09   21.93
  -7  -5   0  144.59   19.75
   7   5   0  122.81   18.45
   7  -5   0  124.21   15.75
   9  -5   0  113.88   16.70
  -9  -5   0   89.46   16.74
  -9   5   0  132.92   18.56
   9   5   0   85.58   17.37
   9   5   0  106.25   23.16
   9  -5   0  123.74   16.99
   9   5   0  107.13   16.06
 -11  -5   0   48.31   14.60
 -11   5   0   37.91   11.07
  11  -5   0   32.21    9.84
  11  -5   0   31.15    9.90
  11   5   0   34.78   12.24
  11   5   0   40.01   14.94
  13  -5   0   30.33   15.12
  13   5   0   27.23   13.37
 -13   5   0   15.68   10.88
  13  -5   0   16.39    9.20
  13   5   0   39.46   16.62
   0   6   0 9999.00  458.97
   0   6   0 9304.80  741.39
   0  -6   0 9841.12  455.28
   0  -6   0 8968.32  712.78
   2   6   0  304.33   20.11
  -2  -6   0  270.44   21.24
   2   6   0  326.50   22.33
  -2   6   0  325.69   18.99
  -2  -6   0  346.56   20.77
   2  -6   0  312.99   18.74
   4   6   0 1077.53   57.24
  -4   6   0 1096.90   54.75
   4   6   0  991.12   59.23
   4  -6   0 1138.72   54.30
   4  -6   0 1050.15   53.33
  -4  -6   0 1124.35   57.32
  -6   6   0  444.60   27.41
   6   6   0  370.32   31.80
  -6  -6   0  399.53   29.04
   6   6   0  376.09   25.06
   6  -6   0  396.76   25.56
   6   6   0  422.82   29.45
   6  -6   0  409.83   26.04
  -8   6   0  344.95   26.12
   8  -6   0  373.15   25.20
   8   6   0  314.17   24.76
  -8  -6   0  368.81   28.86
   8  -6   0  308.83   24.91
   8   6   0  397.17   30.14
   8   6   0  300.31   30.91
  10   6   0  178.71   23.05
  10  -6   0  168.65   17.23
  10   6   0  145.87   26.20
 -10   6   0  190.82   23.95
 -10  -6   0  127.42   22.86
  10   6   0  189.34   26.83
  10  -6   0  137.96   19.89
  12  -6   0   59.72   13.45
 -12   6   0   48.15   13.06
  12   6   0   34.23   14.28
  12  -6   0   53.89   12.60
  12   6   0   45.30   14.82
   1  -7   0  244.84   17.09
   1   7   0  300.46   19.78
  -1  -7   0  278.81   17.97
  -1   7   0  269.07   17.37
  -1  -7   0  242.01   18.85
   3   7   0  366.91   27.52
  -3   7   0  433.16   24.60
   3  -7   0  411.81   23.94
  -3  -7   0  453.44   26.87
   3   7   0  369.47   25.60
   5  -7   0  231.49   16.87
   5   7   0  230.17   16.65
   5   7   0  252.94   20.29
   5   7   0  190.17   20.98
   5  -7   0  256.72   17.64
  -5   7   0  230.74   17.93
  -5  -7   0  211.84   19.26
  -7  -7   0  120.07   18.42
   7  -7   0  136.92   16.61
   7   7   0  121.35   12.97
   7   7   0  163.59   24.85
  -7   7   0  145.47   14.58
   7   7   0  129.66   18.94
   7  -7   0  134.70   13.50
   9  -7   0  190.48   17.52
   9   7   0  161.28   27.94
  -9  -7   0  185.18   25.09
   9   7   0  153.45   23.75
  -9   7   0  179.89   22.85
   9   7   0  182.70   17.85
   9  -7   0  178.54   17.72
  11   7   0   38.53   13.16
  11   7   0   38.77   15.01
  11  -7   0   30.81   10.15
  11   7   0   51.95   17.35
 -11   7   0   48.33   11.97
  11  -7   0   29.58    9.39
 -13   7   0   15.13    9.47
  13   7   0    9.65   12.10
  13  -7   0   15.21    9.38
  13   7   0   24.23   13.51
   0  -8   0 2351.44  138.85
   0   8   0 2286.96  142.57
   0   8   0 2552.33  468.95
   0  -8   0 2536.21  440.48
  -2  -8   0  467.99   28.50
  -2   8   0  459.89   27.04
   2   8   0  513.46   31.11
   2  -8   0  487.05   27.48
  -2  -8   0  421.72   30.07
   4   8   0 2073.97  105.01
  -4  -8   0 2054.02  101.69
   4   8   0 2063.95  101.52
   6   8   0  272.90   20.42
  -6  -8   0  293.05   24.54
  -6   8   0  303.45   22.38
   6   8   0  277.91   27.62
   6  -8   0  299.02   21.21
   6  -8   0  301.59   21.12
   6   8   0  331.72   25.74
  -8   8   0  208.78   20.12
   8  -8   0  215.31   19.04
   8   8   0  223.99   27.33
   8  -8   0  206.61   18.78
   8   8   0  218.40   30.68
   8   8   0  221.44   19.33
  -8  -8   0  212.59   27.47
  10   8   0  133.14   25.85
  10  -8   0  182.54   22.16
 -10   8   0  170.53   23.35
 -10  -8   0  161.36   25.49
  10  -8   0  182.10   18.32
  10   8   0  187.31   26.94
  10   8   0  149.59   24.37
  12   8   0   61.28   17.24
 -12   8   0   59.56   14.71
  12  -8   0   66.92   14.33
  12  -8   0   48.74   13.09
  12   8   0   69.59   18.29
  -1  -9   0  453.23   28.75
   1  -9   0  499.77   29.67
   1   9   0  503.97   31.12
  -1  -9   0  476.50   31.27
  -1   9   0  536.34   29.82
   3  -9   0  411.66   26.46
  -3  -9   0  453.21   29.25
   3   9   0  461.16   31.65
  -3   9   0  464.41   27.37
   3   9   0  437.69   29.18
  -5  -9   0   80.40   13.86
   5  -9   0  114.25   14.32
  -5   9   0  115.66   15.52
   5   9   0  114.19   19.51
   5  -9   0   98.01   12.32
   5   9   0  156.44   19.56
  -7  -9   0   95.17   17.27
   7   9   0   57.90   13.33
   7   9   0   80.66   12.58
  -7   9   0   56.76   11.98
   7  -9   0   75.70   13.02
   7   9   0   69.96   17.65
   7  -9   0   63.41   11.22
   9  -9   0  180.90   18.13
   9   9   0  148.56   24.15
  -9   9   0  183.71   23.91
   9  -9   0  214.36   19.28
   9   9   0  226.80   19.48
   9   9   0  145.58   27.70
  -9  -9   0  221.95   28.82
  11  -9   0   26.28    8.69
  11   9   0   11.56   12.63
  11   9   0   38.11   13.20
 -11   9   0   35.97   11.18
  11  -9   0   18.09    9.42
 -13   9   0   41.25   12.86
   0 -10   0 5527.52  290.94
   0  10   0 5447.70  297.79
   0  10   0 6787.40  753.69
   0 -10   0 5616.46  677.41
  -2  10   0 1211.53   58.94
  -2 -10   0 1140.87   59.94
   2 -10   0 1104.25   58.39
  -2 -10   0 1069.43   62.16
   2  10   0 1157.40   62.17
   4  10   0  892.06   55.04
   4 -10   0  890.52   48.84
   4  10   0  904.58   52.61
  -4 -10   0  938.78   52.75
  -4  10   0  955.88   49.92
   6  10   0  134.41   23.25
   6 -10   0  119.28   12.42
   6  10   0  119.57   18.62
  -6  10   0  137.48   17.58
   6 -10   0  141.42   17.23
   6  10   0  113.09   12.11
  -6 -10   0  126.81   19.77
   8  10   0  243.32   34.78
   8  10   0  243.39   20.09
   8 -10   0  257.52   20.79
  -8  10   0  205.62   20.51
   8  10   0  240.06   29.34
  -8 -10   0  243.21   30.39
   8 -10   0  236.16   20.01
  10 -10   0  154.82   20.31
 -10  10   0  156.95   22.36
  10  10   0  136.86   24.24
  10  10   0  122.13   25.88
  10 -10   0  140.91   20.06
  12 -10   0   35.44   10.26
  12  10   0   49.96   15.00
  12  10   0   29.92   16.38
 -12  10   0   33.07   11.54
  -1 -11   0  716.44   40.80
   1  11   0  763.06   43.35
   1 -11   0  690.36   41.12
  -1 -11   0  686.93   43.31
  -1  11   0  745.18   41.49
  -3 -11   0  818.58   49.61
   3 -11   0  878.54   48.18
   3  11   0  833.59   52.28
  -3  11   0 1005.07   49.56
   5  11   0  150.97   21.10
   5 -11   0  136.72   12.86
   5 -11   0  132.47   16.91
   5  11   0  138.08   22.08
  -5 -11   0  153.36   20.73
  -5  11   0  131.47   17.10
   7  11   0   -0.97    5.74
   7  11   0    7.23    5.09
  -7  11   0   12.20    7.05
  -7 -11   0   26.53    9.77
   7 -11   0    7.17    5.83
   7  11   0    0.16    7.06
   7 -11   0    7.66    5.13
   9  11   0   86.97   19.35
   9  11   0  106.91   23.52
   9  11   0   99.67   16.24
   9 -11   0   94.55   15.28
   9 -11   0  105.05   16.02
  -9  11   0   84.42   16.39
  -9 -11   0  116.45   20.67
  11  11   0   42.36   16.59
 -11  11   0   48.59   12.97
  11 -11   0   25.81    8.85
  11 -11   0   29.55    9.99
  11  11   0   49.70   15.19
   0 -12   0 2381.11  113.93
   0 -12   0 2365.79  116.36
  -2  12   0  726.32   37.92
   2  12   0  577.75   38.75
   2 -12   0  572.92   35.98
  -2 -12   0  581.15   36.88
  -2 -12   0  531.00   38.87
   4 -12   0  893.63   48.07
  -4  12   0  851.29   47.93
   4  12   0  835.60   53.29
  -4 -12   0  804.37   49.79
   6  12   0  163.81   22.93
  -6  12   0  191.41   18.20
   6 -12   0  167.47   16.67
   6  12   0  185.14   28.29
   6 -12   0  201.13   16.76
  -6 -12   0  207.04   21.18
   8 -12   0  205.09   18.40
   8  12   0  176.68   26.65
   8  12   0  202.62   18.29
  -8 -12   0  170.47   25.62
  -8  12   0  197.00   24.76
   8  12   0  173.33   28.84
   8 -12   0  198.84   19.02
  10 -12   0  105.75   16.71
  10  12   0  107.67   25.15
  10 -12   0  134.75   20.24
  10  12   0   97.05   21.31
 -10  12   0   98.82   17.86
  12  12   0   47.61   15.42
  12  12   0   40.51   16.74
  12 -12   0    2.93    7.28
 -12  12   0   20.63   10.78
  -1 -13   0  269.91   20.96
  -1 -13   0  243.28   22.62
  -1  13   0  264.40   21.32
   1  13   0  253.76   22.33
   1 -13   0  261.97   21.90
  -3 -13   0  212.91   19.33
  -3 -13   0  178.32   25.96
  -3  13   0  206.13   18.40
   3 -13   0  203.02   17.93
   3  13   0  202.85   21.29
  -5  13   0   63.47   12.44
  -5 -13   0   52.81   11.90
   5  13   0   50.12   12.60
   5 -13   0   60.71   11.76
   5  13   0   63.37   15.91
   7  13   0   28.42   11.55
  -7  13   0   30.40    9.58
   7  13   0   38.87    9.39
   7 -13   0   38.83    9.24
  -7 -13   0   68.25   15.76
   7 -13   0   49.00   10.74
   7  13   0   43.48   14.23
   9 -13   0  136.43   17.78
  -9  13   0   73.96   16.01
   9  13   0  103.38   23.10
   9 -13   0  101.49   16.28
   9  13   0  153.35   25.09
  11 -13   0   -0.91    6.65
  11  13   0    5.07   11.77
  11 -13   0   10.04    7.12
  11  13   0   23.29   13.25
 -11  13   0   15.36    9.04
   0 -14   0  200.73   18.04
   0  14   0  237.65   20.62
   0 -14   0  192.33   19.66
  -2  14   0  152.33   19.42
   2 -14   0  147.74   15.70
  -2 -14   0  153.57   19.83
  -2 -14   0  170.44   24.10
   2  14   0  186.50   23.71
  -4 -14   0  741.37   46.69
   4  14   0  755.59   49.74
   4 -14   0  739.50   43.66
  -4  14   0  687.32   43.41
   6 -14   0  132.76   16.45
  -6 -14   0  130.55   21.43
  -6  14   0  111.79   17.90
   6  14   0  116.84   23.61
   6 -14   0  117.84   16.88
   8 -14   0  135.90   18.36
  -8  14   0  120.72   19.69
   8  14   0  110.34   22.34
  -8 -14   0  129.52   22.74
   8 -14   0  120.94   16.88
   8  14   0  117.65   25.00
  10 -14   0   78.18   15.07
  10 -14   0  113.19   16.81
 -10  14   0   71.27   15.81
  10  14   0   99.22   21.38
  10  14   0   86.10   22.71
  12  14   0   41.94   17.26
 -12  14   0   36.79   12.44
   1 -15   0  119.04   18.79
  -1  15   0  160.38   20.38
   1  15   0  151.75   21.42
  -1 -15   0  134.95   21.07
  -1 -15   0  154.09   15.89
   3 -15   0  192.35   19.08
  -3 -15   0  177.49   26.37
  -3 -15   0  195.89   23.95
   3  15   0  217.35   22.77
  -3  15   0  206.99   19.47
  -5  15   0  209.72   20.29
   5  15   0  192.01   28.15
  -5 -15   0  195.24   25.55
   5 -15   0  177.22   17.75
   7  15   0   77.26   20.84
  -7  15   0   88.04   15.96
   7 -15   0   90.68   14.59
  -7 -15   0  114.72   20.72
   7 -15   0   75.98   14.15
   9 -15   0   92.04   15.46
   9  15   0   72.82   20.32
  -9  15   0   89.46   17.45
   9 -15   0   84.28   16.37
  11 -15   0    0.56    5.50
  11  15   0    4.29   11.41
  11 -15   0   -2.05    3.36
 -11  15   0   12.08    9.62
   0 -16   0  790.29   52.80
   0  16   0  966.75   54.23
   0 -16   0  854.32   50.29
  -2 -16   0  229.10   21.26
   2 -16   0  238.76   22.16
   2  16   0  221.15   23.23
  -2  16   0  272.06   22.71
  -2 -16   0  223.05   29.80
   4 -16   0  322.81   27.21
  -4  16   0  370.99   28.43
  -4 -16   0  369.93   29.96
   4  16   0  348.58   31.80
  -6  16   0  196.23   24.68
   6 -16   0  168.35   21.39
  -6 -16   0  134.77   22.65
   6 -16   0  152.80   16.05
   6  16   0  169.68   28.26
   8 -16   0  210.91   20.34
  -8  16   0  170.30   24.59
   8 -16   0  172.88   17.56
   8  16   0  126.56   21.67
   8  16   0  186.58   31.73
  10 -16   0   72.00   13.49
 -10  16   0   90.29   18.66
  10  16   0   78.23   21.51
  10 -16   0   79.50   16.83
  -1 -17   0  232.30   21.66
   1 -17   0  194.42   21.66
  -1 -17   0  288.89   26.66
   1  17   0  271.73   25.06
  -1  17   0  262.41   23.60
  -3 -17   0  189.39   24.72
   3  17   0  222.42   28.90
   3 -17   0  216.69   21.25
  -3  17   0  199.30   20.21
  -3 -17   0  157.82   25.84
   5  17   0  264.71   34.69
   5 -17   0  258.02   23.29
  -5  17   0  250.64   23.64
   7 -17   0   63.89   12.73
  -7 -17   0   79.51   20.36
   7  17   0  125.87   24.79
  -7  17   0   93.40   16.97
   7 -17   0   53.40   12.30
  -9  17   0   54.37   14.76
   9  17   0   29.80   16.46
   9 -17   0   35.17    9.91
   9 -17   0   40.49   12.61
 -11  17   0   34.78   12.84
  11  17   0    5.63   10.97
  11 -17   0   -1.40    3.14
  11 -17   0   -1.77    5.95
   0  18   0  612.34   41.73
   0 -18   0  574.64   42.30
   0 -18   0  549.26   37.89
  -2 -18   0  151.97   22.26
  -2  18   0  159.61   22.54
   2 -18   0  150.92   22.03
   2  18   0  179.46   25.90
  -2 -18   0  131.34   24.58
   4  18   0  272.57   34.86
  -4 -18   0  260.39   24.95
   4 -18   0  232.06   23.12
  -4  18   0  263.47   24.19
   6  18   0  206.16   31.24
  -6  18   0  194.29   24.96
   6 -18   0  162.02   22.41
   8 -18   0   68.55   15.64
   8 -18   0   70.83   13.60
   8  18   0   59.32   19.32
  -8  18   0   78.19   17.10
  10 -18   0   19.57    7.58
 -10  18   0   42.83   13.89
  10 -18   0    0.01    6.23
  10  18   0   22.43   15.73
   1 -19   0  175.13   21.90
  -1  19   0  179.87   24.91
   1 -19   0  187.19   26.71
   1  19   0  213.62   28.42
  -1 -19   0  178.40   26.99
  -1 -19   0  156.25   21.69
   3 -19   0   39.78   11.20
  -3  19   0   30.16   10.18
   3  19   0   18.80   10.93
  -3 -19   0   27.96   10.59
   5 -19   0   31.52   10.59
   5  19   0   43.12   14.53
  -5  19   0   35.66   11.06
   7 -19   0   26.29    8.05
   7 -19   0   11.27    8.65
   7  19   0   25.44   13.09
  -7  19   0   17.04    9.36
   9  19   0   29.63   15.98
   9 -19   0   22.50   11.93
   9 -19   0   35.56   10.87
  -9  19   0   14.45    9.41
   0 -20   0  420.77   37.11
   0 -20   0  485.94   34.77
   0  20   0  487.95   37.63
  -2 -20   0  108.06   18.93
  -2  20   0  138.77   21.67
   2  20   0  101.86   20.26
  -2 -20   0  161.09   26.66
   2 -20   0  120.56   20.36
   4 -20   0  130.29   21.73
  -4 -20   0  131.70   22.41
   4  20   0  123.89   23.27
  -4  20   0  145.15   23.25
  -6  20   0   43.39   13.47
   6  20   0   46.24   15.82
   6 -20   0   54.43   14.00
   8  20   0   48.68   17.54
   8 -20   0   25.34    8.57
   8 -20   0   30.15   11.37
  -8  20   0   40.26   13.29
  10 -20   0   -0.56    3.37
  10 -20   0    5.08    7.47
 -10  20   0   49.51   15.14
  10  20   0   16.17   15.16
   1 -21   0  136.95   23.19
   1 -21   0  121.24   19.17
  -1 -21   0  142.44   21.86
  -1  21   0  116.73   21.31
   1  21   0  105.38   20.91
  -1 -21   0  135.06   24.93
   3  21   0   33.00   13.24
  -3 -21   0   43.69   11.48
  -3  21   0   30.19   11.16
   3 -21   0   50.99   14.13
  -5  21   0   33.57   11.66
   5  21   0   57.70   16.89
   5 -21   0   46.13   13.21
   7 -21   0   28.95    8.96
   7 -21   0   17.06   10.85
  -7  21   0   24.65    9.87
   7  21   0   16.69   12.95
   9 -21   0   25.50    9.10
   9 -21   0   -0.42    7.00
   9  21   0    1.47   11.27
  -9  21   0   39.02   12.59
   0  22   0  523.99   39.89
   0 -22   0  393.67   37.66
   0 -22   0  437.92   34.34
   2 -22   0  149.83   25.34
  -2 -22   0  160.69   27.61
  -2  22   0  136.96   23.15
   2  22   0  142.34   25.14
   2 -22   0  159.85   21.89
  -2 -22   0  182.58   25.47
   4 -22   0  110.99   20.94
   4  22   0  113.02   23.56
  -4  22   0  109.36   21.06
   6 -22   0   76.13   18.12
   6  22   0   76.67   21.13
  -6  22   0   76.11   17.58
   8 -22   0   45.25   11.57
   8 -22   0   44.55   14.82
   8  22   0   77.11   21.22
  -8  22   0   45.62   14.00
   1  23   0  155.59   26.28
  -1 -23   0  122.95   20.41
   1 -23   0  175.32   28.41
  -1  23   0  150.22   25.34
   1 -23   0  126.51   20.29
  -1 -23   0  113.98   23.55
   3 -23   0   52.30   12.58
  -3 -23   0   27.91   10.07
   3 -23   0   43.05   14.31
  -3  23   0   30.11   12.15
   3  23   0   77.96   19.63
   5  23   0   45.83   15.38
   5 -23   0   91.40   18.53
  -5  23   0   72.55   17.74
   7  23   0   27.54   15.89
   7 -23   0   45.17   11.09
   7 -23   0   36.95   13.58
  -7  23   0   37.37   12.39
  -9  23   0   15.23   10.69
   9 -23   0    0.15    3.85
   9  23   0   12.98   13.79
   0  24   0  141.12   25.26
   0 -24   0  172.26   24.19
   0 -24   0  149.37   27.83
   2 -24   0   70.51   18.81
  -2  24   0   73.39   17.67
   2  24   0   71.02   18.87
  -2 -24   0   48.51   13.31
   2 -24   0   50.47   13.04
   4  24   0  152.82   28.77
  -4  24   0  146.64   24.70
   4 -24   0  166.19   27.44
   6 -24   0   77.47   19.50
   6  24   0   77.44   20.10
  -6  24   0   42.86   14.24
  -8  24   0   16.01   11.29
   8 -24   0   27.07    9.77
   8  24   0   17.42   15.30
  -1 -25   0   36.61   13.14
   1  25   0   35.95   13.61
  -1  25   0   40.13   14.36
  -1 -25   0   48.10   18.31
   3 -25   0    5.78    7.17
  -3  25   0   38.06   14.22
   3  25   0   42.66   15.29
   3 -25   0   30.48   15.62
   5 -25   0   57.75   21.90
  -5  25   0   38.57   15.12
   5  25   0   44.35   15.99
   7  25   0   23.23   14.64
  -7  25   0   13.36   10.55
   7 -25   0   27.14    9.88
   0 -26   0   67.94   22.76
   0  26   0   71.58   21.06
  -2  26   0   12.31   11.66
   2  26   0   28.93   14.38
  -4  26   0   56.22   16.52
   4  26   0   49.19   16.43
   6  26   0   20.63   14.67
  -6  26   0   16.60   11.19
  -8  26   0   26.15   12.25
   8  26   0   23.75   15.17
   1  27   0   11.92   10.42
  -1  27   0   -0.08    8.30
   3 -27   0   32.81   13.01
   3 -27   0    8.58   13.14
   3  27   0   17.59   13.11
  -3  27   0   39.64   13.39
  -5  27   0   22.06   12.67
   5 -27   0    9.02   12.26
   5  27   0    5.78   10.61
   7  27   0   17.12   15.17
  -7  27   0   -6.14    6.42
   7 -27   0   -3.02    5.52
   0  28   0  104.18   22.62
   2  28   0   14.51   11.79
  -2  28   0   48.12   15.14
  -4  28   0   27.55   13.05
   4  28   0   65.39   19.27
  -6  28   0    5.86   10.36
   6  28   0    9.67   12.32
  -1  29   0   22.59   13.56
   1  29   0    0.75    8.52
   3  29   0   -1.97    9.35
  -3  29   0   18.99   13.35
   5  29   0   -1.60   10.66
  -5  29   0   13.46   11.93
   0  30   0   15.76   12.28
  -2  30   0   38.68   14.76
   2  30   0   32.80   14.66
   4  30   0   12.89   12.80
  -4  30   0   24.82   14.23
   1  31   0    2.70   10.15
  -1  31   0   15.11   13.70
  -3  31   0    5.29   11.36
   3  31   0   14.39   14.33
   0  32   0   51.86   17.36
  -2  32   0    5.20    8.72
   2  32   0   20.02   14.24
   0   0   1 1676.80  141.98
  -2   0  -1  906.40   44.36
  -4   0   1 1138.90   53.10
   4   0  -1 1033.52   52.71
  -4   0  -1 1095.63   55.21
   4   0   1 1066.05   55.13
   6   0  -1  360.96   22.91
   6   0   1  287.60   21.59
   6   0  -1  348.80   21.14
   6   0   1  286.06   23.24
  -6   0   1  356.62   21.77
  -6   0   1  335.73   22.37
  -6   0  -1  318.52   22.17
  -6   0  -1  322.60   23.96
   8   0   1  259.50   22.14
  -8   0   1  249.22   21.71
   8   0  -1  250.48   24.93
  -8   0  -1  309.37   23.21
   8   0  -1  301.87   21.23
   8   0   1  294.29   24.85
  -8   0  -1  317.11   25.04
  -8   0   1  291.28   21.78
   8   0  -1  302.98   23.35
  10   0  -1   84.30   15.46
  10   0   1   79.50   16.09
 -10   0  -1  118.34   20.33
  10   0   1   76.59   14.14
  10   0  -1  108.66   16.30
  10   0  -1   86.09   18.97
 -10   0   1   95.45   17.10
  12   0  -1   23.62    8.68
  12   0   1   56.59   15.37
 -12   0   1   36.08   11.30
  12   0  -1   41.66   12.15
  12   0  -1   47.21   15.30
  -1  -1  -1 1805.50  102.61
  -1  -1  -1 2089.22  178.79
   1   1  -1 1774.63   92.46
   1   1  -1 1793.90  173.33
   1  -1   1 1857.41  168.90
  -1   1   1 1872.39  114.03
  -1   1   1 1819.24   87.54
  -1  -1   1 2120.33  177.80
   1  -1  -1 1674.94   87.27
   1   1   1 2089.48  181.76
   1   1   1 1752.76  102.69
   1  -1  -1 1821.62  114.63
  -1   1  -1 1864.18  106.76
  -1  -1   1 1775.86   91.86
   3   1  -1 1144.72   57.76
  -3  -1  -1 1240.48   60.19
   3   1   1 1293.82   60.44
   5  -1   1 1219.62   59.84
   5   1  -1 1029.06   61.28
  -5   1   1 1156.54   58.31
  -5  -1  -1 1199.78   61.68
  -5   1   1 1197.45   58.25
   5   1  -1 1135.28   57.48
   5  -1   1 1180.54   61.08
  -5  -1  -1 1352.16   60.15
   5   1  -1 1208.75   59.68
   5   1   1 1139.76   61.33
   5  -1  -1 1152.60   57.31
   5  -1  -1 1215.49   58.69
  -5  -1   1 1123.76   59.03
   5   1   1 1227.03   59.78
  -5  -1   1 1219.22   58.24
  -5   1  -1 1190.91   59.49
  -5   1  -1 1182.27   61.00
   7   1  -1  224.24   22.87
   7  -1   1  273.60   20.93
   7  -1   1  264.35   22.12
  -7   1   1  270.41   20.46
   7   1  -1  285.64   19.61
  -7   1   1  291.35   20.35
  -7  -1  -1  295.81   21.16
   7   1  -1  267.08   21.14
  -7  -1  -1  222.90   21.28
   7  -1  -1  256.65   18.87
  -7  -1   1  304.31   20.76
  -7  -1   1  285.26   21.47
   7   1   1  271.15   20.83
  -7   1  -1  261.89   20.63
   7  -1  -1  321.97   21.72
  -7   1  -1  288.02   22.80
   7   1   1  254.58   22.39
  -9   1   1  217.43   19.49
  -9  -1  -1  212.44   27.15
  -9   1   1  221.68   19.40
   9  -1   1  196.42   20.44
   9   1  -1  200.22   27.26
   9   1  -1  189.35   19.59
   9  -1   1  206.08   18.85
   9   1  -1  199.32   17.43
   9   1   1  186.28   18.59
   9  -1  -1  187.11   17.09
  -9   1  -1  214.96   26.12
   9  -1  -1  177.78   24.89
  -9   1  -1  218.34   19.84
   9  -1  -1  206.97   19.39
   9   1   1  169.02   24.08
  -9  -1   1  211.81   20.27
 -11  -1  -1  113.15   20.83
  11   1  -1  126.78   17.58
  11   1  -1  124.85   23.20
 -11   1   1  109.21   18.18
  11  -1   1  106.76   19.45
  11   1  -1  114.92   19.31
 -11   1  -1  120.83   21.66
  11  -1  -1   92.79   14.44
  11  -1  -1  122.45   19.25
 -11  -1   1  118.40   19.27
  11  -1  -1   82.30   17.60
  11   1   1  108.97   19.45
  13   1  -1   72.44   17.59
  13  -1   1   35.33   11.93
  13  -1   1   65.55   20.99
  13   1  -1   33.17   13.74
  13  -1  -1   30.25   11.15
  13   1   1   33.70   15.35
  13  -1  -1   38.73   14.26
  13   1   1   33.35   13.68
   0   2  -1 2459.35  228.28
   0  -2  -1 2090.69  161.33
   0   2   1 2432.45  177.68
   0  -2   1 1937.42   99.81
   0  -2   1 2401.70  223.82
   0  -2  -1 1917.73   98.75
   0   2   1 1936.95   99.25
  -2  -2  -1  411.24   23.38
   2   2  -1  398.29   22.36
  -2   2   1  408.28   19.70
  -2   2   1  425.30   20.69
   2   2  -1  388.10   22.65
   2  -2   1  432.49   22.48
   2   2  -1  433.88   20.85
   2  -2   1  432.51   23.14
   2   2   1  439.81   23.71
   2   2   1  454.70   22.05
   2  -2  -1  427.44   19.81
   2  -2  -1  437.10   20.21
  -2  -2   1  417.71   22.40
  -2   2  -1  437.61   22.51
  -2  -2   1  380.17   23.20
  -4  -2  -1  425.66   23.76
  -4   2   1  413.44   22.84
   4  -2   1  371.61   23.56
   4   2  -1  393.92   26.08
  -4  -2  -1  375.20   25.20
   4   2  -1  409.05   22.44
  -4   2   1  413.53   22.26
   4  -2   1  389.81   24.71
   4   2  -1  427.65   24.49
  -4  -2   1  435.01   22.93
   4   2   1  401.99   23.62
   4   2   1  410.81   25.81
  -4  -2   1  417.92   24.28
  -4   2  -1  414.65   24.82
   4  -2  -1  413.11   22.06
  -4   2  -1  422.84   24.19
   4  -2  -1  373.31   22.02
  -6   2   1  112.79   10.98
   6   2  -1  122.50   10.91
  -6  -2  -1  100.38   15.24
   6   2  -1  116.13   14.68
   6  -2   1  132.59   12.69
   6   2  -1  110.52   16.94
   6  -2   1  124.81   16.20
  -6   2   1   82.98   11.71
   6  -2  -1  120.20   10.65
  -6   2  -1  137.98   16.48
   6   2   1  141.67   17.41
  -6  -2   1  114.73   14.64
   6  -2  -1  122.71   11.50
   6   2   1  115.74   11.60
  -6   2  -1  109.14   11.64
   8  -2   1  110.77   17.08
  -8   2   1  104.20   14.93
   8   2  -1  110.42   16.52
  -8  -2  -1  116.78   17.78
   8   2  -1   80.25   15.98
   8   2  -1  106.93   14.56
  -8   2   1  110.69   14.98
   8  -2   1  108.15   15.58
   8   2   1   97.05   14.85
  -8   2  -1   88.85   14.69
   8  -2  -1  100.19   13.33
   8   2   1  100.83   16.96
  -8   2  -1  139.20   18.50
   8  -2  -1   80.05   12.86
  -8  -2   1  148.70   19.32
  10   2  -1   82.03   14.16
  10  -2   1   60.56   14.19
 -10  -2  -1   57.93   14.59
  10   2  -1   38.82   13.24
  10  -2   1   63.51   13.60
 -10   2   1   34.09   10.10
 -10   2   1   44.80   11.36
  10   2  -1   51.16   11.78
  10  -2  -1   27.65   10.78
 -10   2  -1   58.64   12.56
  10  -2  -1   56.22   11.16
 -10   2  -1   76.20   15.77
  10   2   1   39.24   12.02
  10  -2  -1   68.16   12.64
  10   2   1   42.77   11.75
 -10  -2   1   64.23   14.40
  12   2  -1   69.66   14.32
  12   2  -1   27.30   13.99
  12  -2   1   49.71   13.95
 -12   2   1   60.56   15.10
  12   2  -1   56.00   14.13
  12  -2  -1   70.36   14.02
  12   2   1   48.69   17.16
  12  -2  -1   26.11    8.81
  12   2   1   50.07   14.81
  12  -2  -1   29.29   11.54
 -12  -2   1   59.93   16.68
  -1  -3  -1 5665.36  375.16
   1   3  -1 4156.21  384.38
  -1   3   1 4791.62  332.97
  -1  -3  -1 4472.60  224.67
  -1   3   1 4446.52  207.82
   1  -3   1 4372.26  218.36
   1  -3   1 4675.84  421.51
  -1   3  -1 4877.23  430.85
   1  -3  -1 4462.55  327.88
   1   3   1 4635.89  227.01
   1   3   1 4985.58  370.83
  -1  -3   1 4369.35  219.58
   1  -3  -1 4180.12  206.88
  -1  -3   1 4816.07  391.78
  -1   3  -1 4585.44  218.67
   3   3  -1  150.06    9.92
   3   3  -1  130.63   12.42
  -3   3   1  142.64    9.91
  -3  -3  -1  146.99   12.36
  -3   3   1  146.49    8.90
   3  -3   1  137.68   10.97
   3   3  -1  168.54   12.11
   3  -3   1  145.95   11.57
  -3   3  -1  141.24   11.05
  -3  -3   1  136.77   11.16
   3   3   1  170.16   13.05
   3  -3  -1  154.89    9.58
   3   3   1  138.66   10.46
   3  -3  -1  143.16    8.95
  -5   3   1  674.37   36.89
   5  -3   1  673.53   39.99
  -5  -3  -1  753.84   42.10
   5   3  -1  750.67   40.61
   5   3  -1  756.75   37.87
  -5   3   1  765.94   38.58
   5  -3   1  699.82   39.15
   5   3  -1  727.44   43.05
   5  -3  -1  771.77   37.79
  -5  -3   1  748.25   40.44
   5   3   1  693.98   38.73
  -5   3  -1  689.59   39.73
   5   3   1  734.23   41.86
  -5   3  -1  661.67   38.94
   5  -3  -1  715.82   37.05
  -7  -3  -1  393.64   30.16
   7   3  -1  378.62   31.17
   7  -3   1  428.94   29.61
   7   3  -1  441.38   26.93
  -7   3   1  414.57   26.52
   7   3  -1  402.66   29.07
   7  -3   1  418.46   27.86
  -7   3   1  469.92   28.15
   7  -3  -1  418.98   26.97
  -7   3  -1  419.88   28.41
  -7   3  -1  448.80   29.70
   7   3   1  421.29   30.92
  -7  -3   1  411.23   28.75
   7   3   1  401.61   27.53
   7  -3  -1  399.70   25.63
   9   3  -1  224.92   22.50
  -9   3   1  254.42   21.05
  -9  -3  -1  250.33   24.04
   9  -3   1  269.10   21.69
   9   3  -1  267.71   20.83
  -9   3   1  217.27   19.52
   9  -3   1  221.11   22.11
   9   3  -1  234.70   30.13
   9   3   1  254.85   24.48
  -9   3  -1  227.00   22.09
  -9  -3   1  259.80   23.09
   9   3   1  250.47   21.92
  -9   3  -1  227.01   21.03
   9  -3  -1  237.85   20.52
   9  -3  -1  204.42   18.42
  11   3  -1   94.92   15.70
  11   3  -1   86.74   16.88
  11   3  -1   80.09   18.87
 -11  -3  -1   75.35   17.42
  11  -3   1   87.89   17.63
 -11   3   1  118.58   19.09
  11   3   1   56.07   17.97
  11  -3  -1   84.90   13.37
  11   3   1   69.45   16.52
  11  -3  -1   75.99   14.66
  11  -3  -1  104.11   18.67
 -11  -3   1   99.85   19.23
  11   3   1  106.80   20.67
 -11   3  -1   78.26   15.95
  13  -3   1   44.34   13.81
  13   3  -1   15.35   10.20
  13   3  -1   67.98   17.10
  13   3   1   57.92   19.70
  13   3   1   25.48   13.86
  13  -3  -1   46.31   13.41
   0   4   1 1186.68   72.25
   0  -4   1 1227.43   71.75
   0   4  -1 1122.80   71.22
   0   4  -1 1175.12  236.58
   0   4   1 1238.69  215.87
   0  -4   1 1335.08  258.42
   0  -4  -1 1173.10   70.60
  -2   4   1   76.06    6.34
   2  -4   1   82.69    7.59
  -2  -4  -1  102.65    9.08
   2   4  -1   93.38   10.89
   2  -4  -1   80.89    6.33
  -2   4  -1   77.51    7.52
  -2  -4   1   83.04   10.85
  -2  -4   1   68.98    8.81
   2   4   1   87.85   10.66
   4   4  -1  206.22   15.93
   4   4  -1  197.39   13.57
  -4  -4  -1  204.01   16.50
   4   4  -1  195.73   17.49
   4  -4   1  214.37   15.24
   4  -4   1  202.58   15.58
  -4   4   1  208.76   14.16
  -4  -4   1  222.27   16.26
   4  -4  -1  208.91   12.86
   4  -4  -1  187.44   12.92
   4   4   1  199.05   16.52
   4   4   1  215.49   14.74
  -4   4  -1  210.36   15.52
   6  -4   1  199.92   17.16
  -6  -4  -1  210.55   18.70
   6   4  -1  241.93   18.76
  -6   4   1  206.83   16.00
   6   4  -1  212.29   19.95
   6  -4   1  157.52   15.19
   6   4  -1  179.63   14.74
  -6   4   1  189.89   14.37
  -6  -4   1  186.20   17.25
   6  -4  -1  170.79   14.10
  -6   4  -1  199.22   16.76
  -6   4  -1  199.76   16.50
   6   4   1  166.93   17.49
   6   4   1  206.29   16.28
   6  -4  -1  193.48   14.43
   8  -4   1  146.83   15.63
  -8   4   1  141.21   13.80
  -8   4   1  147.95   15.00
   8   4  -1  116.90   21.08
  -8  -4  -1  161.83   22.66
   8  -4   1  150.80   20.24
   8   4  -1  158.88   20.77
   8   4  -1  149.76   14.27
  -8   4  -1  153.02   15.99
  -8  -4   1  165.82   21.13
   8   4   1  181.99   23.47
   8   4   1  171.60   15.80
   8  -4  -1  131.72   13.39
   8  -4  -1  146.14   14.61
  10   4  -1   17.67   11.18
  10  -4   1   21.87    8.56
  10   4  -1   25.98   10.23
  10   4  -1   22.90    8.08
 -10  -4  -1   61.48   15.53
 -10   4   1   43.49   11.48
  10  -4   1   40.42   10.38
 -10  -4   1   39.34   12.06
  10   4   1   43.71   11.77
  10   4   1   23.60    9.99
 -10   4  -1   36.79   11.05
  10  -4  -1   38.13    9.92
  10  -4  -1   40.97    8.91
 -12   4   1   39.08   11.86
  12   4  -1   18.83   11.84
  12   4  -1   39.47   11.83
  12  -4   1   50.85   13.83
  12   4  -1   42.57   13.05
 -12   4  -1   36.21   10.87
  12  -4  -1    6.85    9.01
  12   4   1    1.95   10.36
  12  -4  -1   16.16    8.38
  12   4   1   35.85   13.12
 -12  -4   1   38.64   16.04
  -1  -5  -1  572.28   29.28
   1   5  -1  602.37   29.92
   1  -5   1  580.21   28.91
  -1   5   1  566.38   28.08
  -1  -5   1  493.39   29.36
  -1   5  -1  582.66   28.76
   1  -5  -1  555.83   26.61
   1   5   1  435.64   29.22
   1  -5  -1  487.28   27.31
   1   5   1  565.63   28.98
   3  -5   1 1442.98   69.22
  -3  -5  -1 1439.20   70.91
   3   5  -1 1476.06   70.58
   3   5  -1 1417.95   71.55
  -3  -5   1 1281.39   71.77
   3   5   1 1529.02   71.27
   5   5  -1 1981.85   93.33
  -5  -5  -1 1941.11   94.46
   5  -5   1 1863.85   90.84
   5   5  -1 1879.83   95.68
   5   5   1 1843.77   93.83
   5  -5  -1 1815.94   87.69
   5   5   1 1799.43   89.87
  -5  -5   1 1975.82   93.18
  -7   5   1  506.66   31.57
   7   5  -1  510.28   30.54
   7  -5   1  494.07   33.03
   7  -5   1  496.05   31.86
  -7  -5  -1  540.00   36.12
   7   5  -1  463.60   36.35
   7   5  -1  512.60   34.45
   7  -5  -1  514.71   29.90
  -7  -5   1  499.33   33.95
   7   5   1  440.67   30.78
   7   5   1  564.80   36.55
  -7   5  -1  481.03   32.44
   7  -5  -1  513.26   30.29
   9  -5   1  232.15   22.92
   9   5  -1  277.81   25.06
   9  -5   1  258.46   22.72
  -9   5   1  250.36   22.15
   9   5  -1  208.91   30.73
   9   5  -1  251.33   20.94
  -9  -5  -1  262.64   25.76
   9  -5  -1  249.56   20.10
  -9   5  -1  250.20   22.84
   9   5   1  282.62   26.41
   9  -5  -1  275.88   21.48
   9   5   1  283.39   23.49
  -9  -5   1  274.31   25.10
  11   5  -1   46.07   13.56
 -11   5   1   91.60   16.40
  11   5  -1   79.09   17.73
  11  -5   1   69.88   15.66
  11   5  -1  106.51   16.46
  11  -5  -1   97.83   15.89
  11   5   1   68.26   16.24
  11  -5  -1   76.32   17.63
 -11   5  -1   83.68   16.47
 -11  -5   1  121.81   21.68
  11   5   1   59.09   18.87
  11  -5  -1  105.71   16.18
  13  -5   1   43.62   13.54
  13   5  -1   44.94   15.10
 -13   5   1   56.10   14.50
  13   5  -1   19.19   12.32
  13  -5  -1    7.34    7.76
  13   5   1   25.98   17.66
 -13   5  -1   43.73   13.77
  13   5   1   51.00   16.14
   0   6  -1  552.03   27.56
   0   6   1  508.76   26.22
   0  -6  -1  423.36   26.71
   0   6   1  449.70   27.14
   0  -6   1  514.22   27.62
   0  -6  -1  495.60   25.95
  -2   6   1  228.59   14.55
   2  -6   1  242.86   15.78
   2   6  -1  228.14   17.08
  -2  -6  -1  229.51   16.57
   2   6   1  238.97   16.61
  -2   6  -1  221.47   15.45
   2   6   1  202.91   17.65
   2  -6  -1  239.61   14.62
  -2  -6   1  258.13   17.03
  -2  -6   1  220.81   17.70
  -4   6   1  838.71   43.19
  -4  -6  -1  865.45   47.36
   4   6  -1  895.13   46.87
   4  -6   1  821.54   44.41
   4  -6   1  822.56   44.19
   4   6  -1  842.70   48.09
   4  -6  -1  840.99   42.15
   4   6   1  829.28   46.72
   4  -6  -1  792.52   40.83
  -4  -6   1  893.95   46.58
  -4   6  -1  844.47   44.87
   6   6  -1  507.47   32.65
   6  -6   1  441.83   29.25
  -6   6   1  467.70   29.16
   6   6  -1  479.32   34.95
  -6  -6  -1  497.49   33.38
   6  -6   1  429.82   29.78
   6   6  -1  481.51   28.37
   6  -6  -1  477.86   27.36
  -6  -6   1  472.42   32.00
   6   6   1  458.82   29.04
   6   6   1  518.59   33.77
   6  -6  -1  448.73   27.25
  -6   6  -1  476.57   30.57
   8   6  -1  297.89   29.13
   8  -6   1  360.42   26.40
   8  -6   1  281.96   23.46
  -8   6   1  329.39   24.29
   8   6  -1  282.80   22.06
   8   6  -1  278.92   25.88
  -8  -6  -1  277.33   26.36
  -8   6  -1  300.85   24.41
  -8  -6   1  333.18   26.84
   8  -6  -1  306.62   22.16
   8   6   1  323.94   24.54
   8   6   1  270.72   26.38
   8  -6  -1  315.00   22.06
  10   6  -1   38.43   10.49
  10  -6   1   74.45   14.79
  10   6  -1   80.84   16.64
 -10   6   1   61.59   12.93
 -10  -6  -1   44.75   14.24
  10  -6   1   61.65   13.67
  10   6  -1   68.42   17.96
  10  -6  -1   55.78   10.76
  10  -6  -1   59.14   11.38
 -10  -6   1   64.04   15.87
  10   6   1   74.18   19.76
  10   6   1   53.08   14.19
 -10   6  -1   73.11   15.53
  12   6  -1    2.99    8.60
 -12   6   1    9.68    8.35
  12   6  -1    1.54    9.63
  12  -6   1   33.97   11.85
  12  -6  -1   -0.39    4.14
 -12   6  -1   45.72   13.19
  12  -6  -1   14.88   10.75
  12   6   1   10.68   12.97
  12  -6  -1   17.20    8.17
  12   6   1   24.46   11.06
   1   7  -1 2799.06  455.91
  -1   7   1 2657.35  404.16
   1   7  -1 2175.62  143.96
  -1  -7  -1 2816.68  415.12
   1  -7   1 2414.35  137.51
  -1  -7  -1 2332.78  143.68
   1  -7   1 3241.80  507.68
  -1   7   1 2360.80  134.51
  -1   7  -1 2294.67  431.10
  -1   7  -1 2445.17  138.55
   1   7   1 2501.25  434.63
   1  -7  -1 2195.99  128.70
  -1  -7   1 1562.98  352.94
  -1  -7   1 2518.06  144.43
   1   7   1 2556.56  150.16
  -3  -7  -1 1748.16   80.06
   3   7   1 1626.86   78.92
   3   7   1 1506.40   81.32
  -3  -7   1 1456.12   80.53
   5   7  -1  980.53   54.56
   5  -7   1  947.98   51.37
  -5  -7  -1 1017.84   55.66
   5  -7   1  964.32   51.93
   5   7  -1  984.82   49.73
  -5   7   1  939.87   50.52
   5   7   1  996.36   50.91
   5  -7  -1  954.23   48.21
   5   7   1  960.68   54.84
   5  -7  -1  915.18   48.90
  -5   7  -1 1034.62   52.88
  -5  -7   1 1023.73   54.77
   7   7  -1  349.99   27.28
   7   7  -1  293.68   27.95
   7  -7   1  307.82   23.60
   7  -7   1  290.08   23.81
  -7   7   1  294.33   22.88
   7   7  -1  328.38   22.57
  -7  -7  -1  335.97   27.03
  -7   7  -1  375.79   25.98
   7   7   1  311.93   23.26
   7   7   1  301.98   26.60
   7  -7  -1  307.57   21.25
  -7  -7   1  316.07   25.73
   7   7   1  322.64   31.04
   7  -7  -1  329.93   22.00
  -9   7   1  232.84   21.91
   9   7  -1  254.74   21.54
   9   7  -1  291.24   26.21
  -9  -7  -1  254.63   25.50
   9  -7   1  235.45   22.50
   9   7  -1  267.27   27.85
   9  -7   1  258.56   23.35
   9  -7  -1  249.79   20.11
  -9   7  -1  224.95   22.70
   9  -7  -1  286.50   20.83
  -9  -7   1  251.18   25.03
   9   7   1  240.67   30.26
   9   7   1  219.40   21.61
   9   7   1  315.83   41.56
  11   7  -1   80.36   20.14
  11   7  -1   72.73   13.99
  11  -7   1   99.11   18.40
  11   7  -1   75.58   17.21
 -11   7   1   65.81   14.14
  11  -7  -1   81.71   13.52
 -11  -7   1   61.50   17.74
  11  -7  -1   68.82   12.59
  11   7   1   32.26   12.98
  11   7   1   60.70   18.66
 -11   7  -1  104.31   17.77
  13  -7   1   39.03   12.93
 -13   7   1   30.72   11.86
  13   7  -1   22.79   11.95
  13   7   1   35.43   18.19
 -13   7  -1   45.80   13.41
  13   7   1   49.89   16.55
   0   8  -1  243.52   17.48
   0  -8  -1  265.50   16.74
   0  -8  -1  222.91   17.65
   0  -8   1  242.83   17.79
   0   8   1  256.74   18.47
  -2  -8  -1  299.67   20.69
  -2   8   1  297.72   19.04
   2  -8   1  315.87   20.10
   2   8  -1  329.89   22.28
   2   8   1  243.76   21.59
   2   8   1  281.61   20.31
  -2  -8   1  314.12   21.20
  -2   8  -1  304.64   19.92
  -2  -8   1  288.09   22.26
   2  -8  -1  292.00   18.95
   4  -8   1  635.57   35.06
  -4   8   1  656.09   34.25
  -4  -8  -1  631.30   37.63
   4  -8   1  593.60   34.52
   4   8  -1  672.20   39.68
  -4  -8   1  622.57   37.14
   4  -8  -1  594.48   31.18
   4  -8  -1  608.83   32.87
   4   8   1  580.55   39.99
   4   8   1  576.87   36.64
  -4   8  -1  485.75   33.75
   6  -8   1  154.11   18.35
   6   8  -1   92.81   16.25
  -6   8   1  130.05   13.34
  -6  -8  -1  142.36   20.12
   6   8  -1  129.38   12.13
   6   8  -1  144.50   22.04
   6  -8   1  109.46   15.38
  -6  -8   1  163.58   20.73
   6   8   1  123.90   12.59
   6  -8  -1  122.02   11.20
   6  -8  -1  137.72   12.36
   6   8   1  128.63   18.63
   6   8   1  176.73   26.67
  -6   8  -1  120.83   16.30
   8  -8   1  169.67   20.73
  -8  -8  -1  160.25   23.18
   8   8  -1  144.27   23.46
   8   8  -1  164.19   15.33
   8   8  -1  153.85   22.65
   8  -8   1  125.63   18.49
  -8   8   1  143.45   18.94
   8  -8  -1  159.36   14.52
   8   8   1  103.20   22.78
   8   8   1  143.95   19.31
   8  -8  -1  144.75   13.90
  -8   8  -1  131.95   19.27
   8   8   1  124.56   21.03
  -8  -8   1  130.90   20.60
  10   8  -1   60.70   17.56
 -10   8   1   66.09   14.37
  10  -8   1   73.52   15.19
  10  -8   1   55.71   13.66
  10   8  -1   85.60   17.91
 -10  -8  -1   81.30   18.92
  10   8  -1   76.97   13.67
  10  -8  -1   71.95   12.38
  10   8   1   56.43   15.47
 -10  -8   1   34.86   12.81
  10  -8  -1   72.31   13.02
 -10   8  -1   74.33   16.57
  10   8   1  109.23   22.29
  12  -8   1   29.48   11.72
  12   8  -1   24.11   13.88
 -12   8   1   68.05   15.54
  12   8  -1   46.06   14.26
  12  -8  -1   18.59    9.47
  12   8   1    6.25   12.42
  12   8   1   16.54   11.96
  12  -8  -1    5.14    5.34
 -12   8  -1   35.81   12.09
  -1  -9   1 1837.85   90.76
   3  -9   1  859.09   45.02
   3   9  -1  862.58   48.39
  -3   9   1  847.76   43.88
  -3  -9  -1  855.67   47.28
  -3  -9   1  767.21   48.80
  -3  -9   1  890.25   47.36
  -3   9  -1  873.09   45.37
   3   9   1  730.19   48.56
   3   9   1  784.04   46.07
   3  -9  -1  806.90   43.22
   5  -9   1  493.30   30.39
  -5  -9  -1  473.68   33.42
   5   9  -1  432.32   32.43
   5  -9   1  447.09   29.80
  -5   9   1  462.93   29.47
   5   9  -1  488.19   35.11
  -5  -9   1  558.63   34.14
   5   9   1  452.70   36.08
   5  -9  -1  475.82   28.41
   5  -9  -1  488.44   27.08
   5   9   1  509.73   33.95
  -5   9  -1  496.71   31.29
   7   9  -1  236.61   24.84
  -7  -9  -1  230.74   28.27
   7  -9   1  208.72   18.58
   7   9  -1  229.14   18.26
   7  -9   1  206.16   19.19
   7   9  -1  233.43   22.97
  -7   9   1  259.83   20.46
   7   9   1  218.36   18.29
  -7  -9   1  250.39   22.91
   7  -9  -1  228.56   16.86
  -7   9  -1  182.30   18.96
   7   9   1  220.10   27.03
   7   9   1  140.86   25.73
   7  -9  -1  212.98   17.37
   9   9  -1  219.69   28.60
   9   9  -1  172.06   27.30
   9  -9   1  193.94   19.89
   9   9  -1  169.00   17.76
   9  -9   1  182.13   22.74
  -9  -9  -1  207.26   29.18
  -9   9   1  167.59   22.34
   9   9   1  142.68   27.44
   9  -9  -1  168.26   16.30
  -9  -9   1  212.23   27.39
   9   9   1  175.09   18.20
   9   9   1  163.30   25.46
  -9   9  -1  206.80   25.85
   9  -9  -1  207.32   17.05
 -11   9   1   62.87   13.24
  11   9  -1   63.49   16.21
  11  -9   1   34.29   10.54
  11   9  -1   54.34   16.85
  11   9   1   64.70   17.43
  11   9   1   72.38   22.17
 -11   9  -1   69.86   15.51
  11  -9  -1   58.61   11.66
   0  10  -1  629.07   36.42
   0 -10  -1  595.57   34.11
   0 -10   1  621.89   36.78
   0  10   1  674.94   37.41
   0 -10  -1  575.00   36.16
  -2  10   1  526.83   30.61
   2  10  -1  552.82   33.72
   2 -10   1  568.74   31.84
  -2 -10  -1  514.00   31.85
   2  10   1  486.28   33.81
  -2  10  -1  542.54   31.41
  -2 -10   1  462.73   31.32
  -2 -10   1  452.84   33.19
   2  10   1  565.68   32.90
   2 -10  -1  456.75   29.73
   4 -10   1  306.65   22.06
   4  10  -1  265.15   24.29
  -4 -10  -1  281.17   23.38
  -4  10   1  336.46   21.78
   4 -10  -1  275.83   19.95
   4  10   1  332.06   24.71
  -4 -10   1  294.39   23.63
  -4 -10   1  263.21   25.35
  -4  10  -1  330.77   22.97
   4  10   1  314.75   27.20
   6  10  -1   16.74    7.85
   6 -10   1    9.23    6.29
  -6 -10  -1   31.45    9.53
  -6  10   1    9.17    5.39
   6  10  -1    5.09    4.79
   6 -10   1   10.67    5.93
   6  10  -1   19.66    9.78
   6  10   1   14.46    9.45
   6 -10  -1   19.14    6.08
   6 -10  -1    8.09    3.86
  -6 -10   1   19.50    7.69
   6  10   1   26.70    8.87
  -6  10  -1   17.84    7.01
   6  10   1    7.56    5.02
   8 -10   1   78.60   13.61
   8  10  -1  101.59   18.82
   8 -10   1   88.58   14.99
   8  10  -1   97.21   14.79
   8  10  -1   85.22   19.59
  -8 -10  -1   99.98   18.92
  -8  10   1   98.69   16.34
  -8 -10   1  102.26   18.80
   8 -10  -1  106.32   13.61
  -8  10  -1   95.76   16.85
   8  10   1   87.04   21.79
   8  10   1  109.75   19.50
   8  10   1  101.47   16.02
   8 -10  -1   78.03   12.33
 -10  10   1   76.71   15.64
  10  10  -1   58.11   14.83
  10 -10   1   48.64   11.14
  10  10  -1   41.87   14.51
  10  10  -1   92.18   16.71
  10 -10   1   58.85   13.42
  10 -10  -1   46.70   10.17
 -10 -10   1   55.98   15.08
  10  10   1   31.50   16.34
  10 -10  -1   52.91   10.07
 -10  10  -1   68.86   15.13
  10  10   1   63.92   16.81
  12  10  -1   31.87   13.19
 -12  10   1   43.57   12.61
  12 -10   1   30.22   10.29
  12  10   1   15.38   15.10
  12  10   1   25.83   13.92
  12 -10  -1    4.66    4.57
 -12  10  -1   26.61   10.13
  -1 -11  -1  622.41   36.96
   1  11  -1  672.19   39.22
   1 -11   1  642.82   38.20
  -1  11   1  664.86   38.19
  -1 -11  -1  568.07   38.72
   1  11   1  591.05   39.04
  -1 -11   1  690.86   40.46
  -1  11  -1  702.46   38.39
   1 -11  -1  615.18   37.48
   1 -11  -1  653.70   35.61
  -3  11   1  706.87   37.91
   3  11  -1  718.65   42.37
  -3 -11  -1  651.06   39.77
   3 -11   1  659.76   38.08
   3 -11  -1  634.19   36.73
  -3  11  -1  714.32   38.89
  -3 -11   1  550.84   38.22
   3  11   1  608.96   41.97
   3  11   1  720.91   40.94
  -3 -11   1  483.62   39.71
   5 -11   1  342.81   25.98
   5  11  -1  376.40   30.95
   5 -11   1  410.89   27.06
  -5  11   1  436.28   27.16
  -5 -11  -1  412.19   30.57
   5 -11  -1  405.25   23.80
  -5  11  -1  386.59   27.58
   5  11   1  383.46   29.77
   5  11   1  358.57   32.29
   5 -11  -1  371.36   25.06
  -5 -11   1  364.36   28.90
   7 -11   1  151.20   19.32
  -7  11   1  166.61   20.43
   7 -11   1  159.25   16.41
   7  11  -1  155.86   25.26
  -7 -11  -1  128.57   21.43
   7  11  -1  157.15   14.88
   7 -11  -1  136.54   13.97
   7  11   1  142.03   25.20
   7  11   1  117.57   20.18
  -7  11  -1  120.26   18.21
  -7 -11   1  108.09   19.20
   7 -11  -1  135.74   12.92
   7  11   1  128.26   13.79
   9  11  -1  174.55   27.85
   9 -11   1  151.55   20.98
  -9  11   1  171.55   22.12
  -9 -11  -1  160.81   25.82
   9 -11   1  150.64   20.46
   9  11  -1  144.84   15.48
   9  11   1  201.75   28.66
   9 -11  -1  158.14   19.47
   9  11   1   97.52   23.01
  -9  11  -1  145.23   22.14
   9 -11  -1  144.44   17.41
  -9 -11   1  134.64   23.59
  11  11  -1  112.47   23.09
  11 -11   1   48.95   13.12
 -11  11   1   77.88   16.41
  11 -11  -1   51.89   11.10
 -11  11  -1   54.11   14.01
  11  11   1   60.26   19.76
  11  11   1  102.78   22.10
   0 -12  -1  620.72   35.79
   0 -12  -1  602.66   38.30
   0 -12   1  652.27   39.06
   0  12  -1  530.13   36.54
   0  12   1  707.99   39.72
   2  12  -1  452.94   32.04
   2 -12   1  463.19   30.44
  -2 -12  -1  470.17   30.73
  -2  12   1  480.17   29.96
   2 -12  -1  436.10   29.35
  -2 -12   1  457.90   30.64
  -2  12  -1  447.32   29.78
   2  12   1  440.67   32.79
  -2 -12   1  481.01   33.82
   4 -12   1  310.87   23.43
   4  12  -1  287.26   26.13
  -4 -12  -1  323.47   25.92
  -4  12   1  313.21   22.95
  -4 -12   1  253.89   26.43
  -4  12  -1  329.20   24.14
  -4 -12   1  325.81   25.64
   4  12   1  346.69   26.66
   4 -12  -1  307.61   22.30
   4  12   1  329.69   28.61
   6 -12   1   56.72   11.07
   6  12  -1   31.69   12.27
  -6 -12  -1   55.03   12.94
   6 -12   1   56.65   11.75
  -6  12   1   52.61   10.90
   6 -12  -1   66.44   10.88
   6 -12  -1   46.06    8.26
  -6 -12   1   73.24   15.12
  -6  12  -1   69.43   13.55
   6  12   1   40.90   11.99
   6  12   1   47.76   15.00
  -8  12   1  100.65   16.88
   8 -12   1  108.91   16.89
   8  12  -1  148.67   25.77
   8 -12   1  103.66   16.68
   8  12  -1   90.01   14.98
  -8 -12  -1   58.85   14.72
   8  12   1   62.67   19.57
  -8 -12   1   80.96   16.46
   8  12   1  108.69   20.08
   8 -12  -1  106.07   15.30
  -8  12  -1   89.15   16.01
   8 -12  -1   91.13   12.82
   8  12   1  107.80   16.86
 -10  12   1   37.70   10.81
  10 -12   1   16.22    8.88
  10  12  -1   51.60   15.54
  10 -12   1   29.17   11.56
  10 -12  -1   42.83    9.05
 -10  12  -1   32.85   10.95
  10  12   1   55.26   19.39
  10  12   1   46.21   15.33
  10 -12  -1   40.28    9.89
 -12  12   1   10.64    9.39
  12  12  -1   31.20   16.25
  12 -12   1   10.59    8.61
  12  12   1   -1.85   11.46
  12  12   1   18.28   12.60
 -12  12  -1   10.52    8.63
  12 -12  -1    0.40    2.75
  12 -12  -1    2.54    5.53
   1  13  -1  411.49   29.14
  -1 -13  -1  355.48   28.75
  -1 -13  -1  382.92   26.99
   1 -13   1  393.79   28.30
  -1  13   1  501.09   30.30
  -1 -13   1  332.94   28.48
  -1  13  -1  440.98   28.72
   1  13   1  420.57   30.17
   1 -13  -1  377.57   27.73
   1 -13  -1  371.58   25.24
  -3  13   1  401.10   26.69
   3  13  -1  395.76   29.86
   3 -13   1  353.24   26.12
  -3 -13  -1  358.93   27.49
  -3  13  -1  367.15   26.58
   3  13   1  405.95   31.52
  -3 -13   1  319.04   29.20
  -3 -13   1  338.67   26.82
   3 -13  -1  363.46   25.67
   5 -13   1  238.15   20.47
   5  13  -1  234.03   24.32
  -5 -13  -1  225.61   22.79
  -5  13   1  249.17   20.39
   5 -13  -1  215.01   18.67
  -5 -13   1  250.91   23.16
   5  13   1  217.68   22.38
  -5  13  -1  228.93   20.67
   5  13   1  228.88   31.45
   7  13  -1  117.92   22.78
  -7  13   1  139.46   19.07
   7 -13   1  145.83   19.25
   7  13  -1  135.36   17.39
  -7 -13  -1  164.85   24.96
   7 -13   1  130.65   19.12
   7 -13  -1  134.92   18.02
   7  13   1  142.16   26.90
   7  13   1  162.63   20.51
  -7  13  -1  132.18   19.80
  -7 -13   1  103.47   19.67
   7  13   1  150.77   24.16
   7 -13  -1  153.12   13.75
   9 -13   1  126.28   19.27
   9 -13   1  126.28   20.28
  -9  13   1  130.10   20.56
   9  13  -1  147.49   25.91
   9 -13  -1  149.57   18.74
   9  13   1  121.86   23.00
   9 -13  -1  131.01   13.46
   9  13   1  130.74   25.50
  -9 -13   1  137.09   30.78
  -9  13  -1  108.22   20.38
  11 -13   1   48.66   12.74
  11  13  -1   49.15   17.15
 -11  13   1   36.84   11.91
  11  13   1   56.88   20.62
  11  13   1   42.39   14.72
 -11  13  -1   52.82   14.01
   0  14  -1  170.36   17.30
   0 -14   1  184.12   18.62
   0 -14  -1  164.78   15.47
   0 -14  -1  164.94   21.89
   0  14   1  172.19   17.80
   2  14  -1   92.06   16.28
  -2  14   1  141.28   18.85
   2 -14   1  104.33   16.40
  -2 -14  -1   86.71   14.87
   2 -14  -1  111.82   16.28
   2  14   1   74.77   16.04
  -2 -14   1   89.01   17.87
  -2 -14   1   79.74   13.91
  -2  14  -1   92.54   15.08
  -4 -14  -1  210.89   21.61
   4 -14   1  235.58   20.45
   4  14  -1  253.58   24.33
  -4  14   1  225.32   20.25
  -4  14  -1  253.65   21.62
  -4 -14   1  222.58   30.64
   4  14   1  259.87   23.63
   4 -14  -1  225.72   19.75
   4  14   1  239.82   25.41
  -4 -14   1  234.37   21.99
  -6 -14  -1  146.89   23.32
  -6  14   1  166.70   17.33
   6 -14   1  163.78   21.64
   6  14  -1  147.78   24.58
   6 -14   1  162.54   16.57
   6  14   1  140.22   22.03
   6 -14  -1  165.75   14.19
  -6 -14   1  160.73   23.11
   6 -14  -1  144.68   15.31
   6  14   1  138.54   25.54
  -6  14  -1  184.99   23.81
   8 -14   1  113.58   18.59
  -8  14   1   94.80   16.69
   8  14  -1   94.08   21.97
  -8 -14  -1   97.32   19.14
   8 -14   1  134.26   19.81
   8  14  -1  101.75   15.71
   8 -14  -1  107.30   14.51
  -8  14  -1  106.86   18.40
   8  14   1   97.31   24.03
  -8 -14   1   89.71   19.15
   8 -14  -1  102.37   14.67
   8  14   1  127.02   22.23
 -10  14   1   34.10   10.71
  10  14  -1   40.96   14.77
  10 -14   1   47.47   15.62
  10 -14   1   25.47    9.25
 -10  14  -1   16.08    9.49
  10  14   1    8.37    9.64
  10 -14  -1   15.77    5.93
  10  14   1    3.41   11.14
  12 -14   1   29.45   11.26
 -12  14   1   17.01   11.14
  12  14  -1   17.12   13.85
 -12  14  -1   16.03   10.74
  12  14   1    7.85   13.73
  12  14   1    5.78   10.80
  12 -14  -1   -0.30    2.64
  12 -14  -1    2.20    6.11
   1  15  -1  438.21   31.91
   1 -15   1  395.91   30.85
  -1 -15  -1  443.94   30.27
  -1 -15  -1  385.08   31.86
  -1  15   1  503.67   32.70
  -1 -15   1  438.42   33.01
   1 -15  -1  402.28   27.94
  -1  15  -1  442.02   30.99
   1 -15  -1  393.17   30.48
  -1 -15   1  385.60   29.40
   1  15   1  452.31   33.15
   3 -15   1  447.15   31.02
  -3 -15  -1  430.29   31.42
   3  15  -1  425.95   33.23
  -3  15   1  405.23   29.47
  -3 -15   1  328.12   32.02
  -3 -15   1  389.78   30.54
  -3  15  -1  491.27   31.98
   3  15   1  424.98   34.32
   3 -15  -1  412.83   29.67
  -5 -15  -1  421.28   34.24
  -5  15   1  498.16   32.82
   5 -15   1  412.16   31.66
   5  15  -1  460.21   37.12
   5  15   1  464.65   38.93
   5  15   1  409.99   34.36
   5 -15  -1  443.34   30.63
  -5 -15   1  429.30   33.94
  -5  15  -1  462.80   33.02
  -7  15   1  202.39   25.24
   7 -15   1  185.50   19.40
  -7 -15  -1  191.44   28.06
   7  15  -1  208.77   31.01
   7 -15   1  172.40   22.99
   7 -15  -1  199.24   16.98
  -7  15  -1  201.24   25.31
   7 -15  -1  197.82   18.73
   7  15   1  209.92   33.28
  -7 -15   1  201.01   28.25
   7  15   1  206.58   28.23
  -9  15   1   88.72   17.53
   9  15  -1  112.42   24.33
   9 -15   1  160.90   22.38
   9  15  -1  100.81   17.21
   9 -15   1   72.22   15.73
  -9  15  -1   85.27   16.84
   9 -15  -1  114.08   17.42
   9  15   1  113.39   22.55
   9 -15  -1  110.78   14.72
   9  15   1  118.76   27.20
  11  15  -1   14.65   12.73
  11 -15   1    8.44    8.11
 -11  15   1   43.33   12.93
  11  15   1   46.06   15.98
  11 -15  -1   -1.60    4.50
  11  15   1   58.34   20.83
 -11  15  -1   25.55    9.97
   0  16   1  207.38   20.39
   0  16  -1  149.65   21.00
   0 -16  -1  142.55   18.51
   0 -16  -1  184.64   24.12
   0 -16   1  155.17   22.54
  -2 -16  -1  123.95   18.51
   2 -16   1  146.38   20.96
  -2  16   1  112.75   18.14
   2  16  -1  129.58   20.79
   2 -16  -1  123.61   18.64
  -2 -16   1  115.40   20.90
   2 -16  -1  131.15   16.83
  -2 -16   1  113.57   17.31
  -2  16  -1  107.87   17.53
   2  16   1  127.93   20.87
  -4  16   1  181.38   19.40
   4 -16   1  199.31   19.76
   4  16  -1  235.52   24.40
  -4 -16  -1  218.69   27.21
   4 -16  -1  203.35   19.55
  -4 -16   1  247.80   33.39
  -4 -16   1  212.52   21.29
  -4  16  -1  195.18   20.18
   4  16   1  171.60   27.26
   6 -16   1  148.02   19.87
  -6  16   1   95.44   16.65
   6  16  -1  122.19   22.65
   6 -16   1  132.29   19.53
   6  16   1  113.17   20.79
   6 -16  -1  129.84   13.02
   6 -16  -1  135.08   18.90
  -6  16  -1  153.47   21.50
   6  16   1  128.78   24.95
  -6 -16   1  136.07   22.50
   8  16  -1  130.39   24.73
   8 -16   1  119.42   20.63
  -8  16   1  133.13   21.05
   8 -16   1  112.44   18.00
  -8  16  -1   83.48   17.48
   8 -16  -1   92.75   16.58
   8  16   1  127.59   24.95
   8 -16  -1  128.01   15.81
   8  16   1   57.32   19.14
  10  16  -1   14.08   14.86
 -10  16   1   26.52   10.25
  10 -16   1   26.14   10.06
  10  16   1   43.83   15.93
 -10  16  -1   15.65   10.13
  10  16   1   19.96   14.90
   1  17  -1  648.75   41.33
   1 -17   1  484.16   37.79
  -1  17   1  625.79   40.15
  -1 -17  -1  477.64   38.61
  -1 -17  -1  581.07   37.65
   1 -17  -1  518.86   35.10
   1 -17  -1  516.53   38.15
  -1 -17   1  531.86   37.49
  -1  17  -1  616.64   39.58
  -1 -17   1  515.68   40.02
   1  17   1  642.81   42.02
  -3 -17  -1  454.84   35.04
  -3  17   1  506.79   35.04
   3  17  -1  540.85   38.94
   3 -17   1  485.58   35.25
   3 -17  -1  445.54   33.22
  -3 -17   1  520.91   36.65
   3  17   1  435.64   37.51
  -3  17  -1  528.43   35.85
  -3 -17   1  423.00   37.79
   5 -17   1  292.29   27.37
   5  17  -1  384.53   33.68
  -5  17   1  377.62   28.84
  -5 -17   1  356.22   31.13
  -5  17  -1  321.31   28.77
   5 -17  -1  351.66   27.13
   5  17   1  373.75   34.77
   7  17  -1  156.44   27.25
   7 -17   1  153.03   21.76
  -7  17   1  130.41   19.85
   7 -17   1  137.83   19.70
  -7 -17   1  137.22   24.01
   7 -17  -1  136.22   14.12
   7  17   1  142.13   26.53
   7  17   1  172.48   26.84
   7 -17  -1  129.34   18.08
  -7  17  -1  158.44   23.59
   9 -17   1   74.60   17.07
   9 -17   1   76.01   15.28
   9  17  -1  143.22   27.79
  -9  17   1   89.62   17.98
   9  17   1  120.95   26.39
  -9  17  -1  116.42   22.15
   9 -17  -1   90.85   13.44
   9  17   1  106.43   22.80
 -11  17   1   59.70   15.26
  11  17  -1   25.01   16.02
  11 -17   1   38.91   11.81
 -11  17  -1   18.37   11.97
  11 -17  -1   -0.59    5.42
  11  17   1   57.19   20.76
   0  18  -1  226.06   22.57
   0 -18   1  237.25   29.77
   0 -18  -1  196.55   27.24
   0 -18  -1  209.69   19.98
   0  18   1  241.12   24.60
   2  18  -1  163.26   23.99
   2 -18   1  140.75   22.17
  -2  18   1  146.95   21.64
  -2 -18  -1  166.74   22.26
  -2 -18   1  203.35   24.54
   2 -18  -1  144.14   18.25
  -2  18  -1  154.01   22.50
   2 -18  -1  141.09   20.72
   2  18   1  120.24   22.22
  -2 -18   1  158.87   26.59
  -4 -18  -1  158.34   23.34
  -4  18   1  159.34   21.80
   4 -18   1  129.27   21.86
   4  18  -1  185.38   28.09
  -4  18  -1  119.08   19.21
  -4 -18   1  126.39   24.95
   4  18   1  130.22   24.78
   4 -18  -1  158.51   20.89
   6  18  -1   32.14   13.63
   6 -18   1   44.44   12.13
  -6  18   1   46.36   12.17
   6 -18  -1   48.81   11.85
  -6  18  -1   64.65   14.18
  -6 -18   1   51.13   13.20
   6  18   1   23.21   13.26
   8 -18   1   45.29   13.94
  -8  18   1   32.27   11.31
   8 -18   1   54.45   13.06
   8  18  -1   59.96   17.38
  -8  18  -1   38.17   12.04
   8 -18  -1   46.31   10.09
   8 -18  -1   41.21   11.48
   8  18   1   30.23   13.52
  10 -18   1   31.11   10.93
  10  18  -1    2.02   12.28
  10 -18   1   32.23   13.84
 -10  18   1   38.33   12.64
  10  18   1    0.30   10.44
 -10  18  -1   21.83   12.03
  -1 -19  -1  200.70   21.42
   1  19  -1  286.83   26.09
  -1 -19  -1  191.10   29.02
   1 -19   1  263.34   25.55
  -1  19   1  239.40   23.98
  -1  19  -1  238.78   24.56
   1  19   1  250.06   31.57
   1 -19  -1  277.19   22.40
   1 -19  -1  241.95   24.15
  -1 -19   1  217.77   22.43
  -1 -19   1  255.98   33.58
  -3 -19  -1  156.72   23.64
   3 -19   1  183.60   25.95
  -3  19   1  138.98   21.58
   3  19  -1  182.23   27.06
  -3 -19   1  160.40   23.26
  -3  19  -1  150.54   22.23
   3  19   1  115.89   22.59
   3 -19  -1  145.11   18.80
   3 -19  -1  155.67   21.61
  -3 -19   1  123.12   23.33
   5  19  -1  117.05   22.53
  -5  19   1  141.23   21.91
   5 -19   1  134.29   20.77
   5 -19  -1  126.71   19.03
  -5  19  -1  141.46   21.55
   5  19   1  135.40   25.57
   7 -19   1   73.67   14.51
   7  19  -1   64.78   19.31
  -7  19   1   81.19   16.89
   7 -19   1   59.68   15.66
   7  19   1   98.84   22.92
   7 -19  -1   53.42   13.73
  -7  19  -1   96.48   18.49
   7 -19  -1   95.57   14.07
   9 -19   1   46.89   11.93
   9  19  -1   63.20   18.82
  -9  19   1   42.33   12.32
   9  19   1   39.98   16.61
  -9  19  -1   56.95   15.28
   0 -20   1  158.89   26.26
   0 -20  -1  141.24   25.18
   0 -20  -1  162.95   21.75
   0 -20   1  165.13   23.10
   0  20  -1  121.24   21.51
   0  20   1  127.32   22.65
   2  20  -1   43.27   13.33
  -2 -20  -1   78.52   16.05
  -2  20   1   43.35   12.62
   2 -20   1   50.69   13.79
   2 -20  -1   39.42   12.50
   2  20   1   68.62   16.50
   2 -20  -1   47.18   10.90
  -2 -20   1   58.56   13.55
  -2  20  -1   76.49   15.97
  -2 -20   1   39.58   13.87
  -4  20   1   58.01   14.09
  -4 -20  -1   54.91   14.18
   4  20  -1   45.64   14.87
   4 -20   1   77.41   16.94
  -4  20  -1   72.63   15.79
   4  20   1   49.17   16.03
   4 -20  -1   61.76   15.07
   6 -20   1   22.03   10.95
  -6  20   1   46.11   11.98
   6  20  -1    4.74   10.34
  -6  20  -1   22.19   10.79
   6 -20  -1   29.76   10.21
   6  20   1   22.01   13.11
   8  20  -1    8.46   11.55
   8 -20   1   23.64    8.81
  -8  20   1    8.34    8.63
  -8  20  -1    0.25    6.34
   8 -20  -1   19.53    7.19
   8 -20  -1    8.67    7.94
   8  20   1   36.97   15.70
  10 -20   1    8.17    7.61
  10  20  -1    4.63   11.18
 -10  20   1   14.52   11.04
 -10  20  -1   26.01   12.58
  10  20   1  -13.69    6.37
  10 -20  -1   -0.63    2.48
  10 -20  -1    0.00    5.70
  -1 -21  -1  163.84   23.29
  -1 -21  -1  127.22   24.06
   1  21  -1  140.30   23.34
   1 -21   1  163.48   25.32
  -1  21   1  180.54   26.79
   1 -21  -1  145.58   24.23
   1  21   1  186.54   27.94
  -1 -21   1  147.53   26.26
  -1  21  -1  158.13   25.28
  -1 -21   1  164.84   23.74
   1 -21  -1  195.07   23.64
  -3 -21  -1   90.79   17.68
  -3  21   1  103.36   19.01
   3  21  -1   99.66   20.45
   3 -21   1   75.29   17.22
  -3  21  -1   82.06   17.59
   3 -21  -1  112.46   20.22
   3  21   1   90.46   20.26
   3 -21  -1   73.76   13.85
  -3 -21   1   51.48   15.13
  -3 -21   1   61.56   18.51
   5 -21   1   70.15   16.77
  -5  21   1  119.23   20.12
   5  21  -1   79.39   19.32
   5  21   1   67.65   18.36
   5 -21  -1   83.74   16.29
  -5  21  -1  101.77   20.40
   7 -21   1   43.67   11.63
  -7  21   1   51.69   14.72
   7  21  -1   40.95   14.68
   7 -21  -1   62.43   13.82
   7  21   1   65.48   19.21
  -7  21  -1   38.50   13.11
   7 -21  -1   44.96   10.33
   9 -21   1   32.78   11.50
  -9  21   1   39.06   13.30
   9  21  -1   46.35   18.92
   9  21   1   21.52   15.50
  -9  21  -1   52.30   15.16
   0 -22  -1  151.02   25.00
   0  22  -1  175.16   26.63
   0 -22   1  148.88   25.71
   0  22   1  194.21   28.73
   0 -22   1  131.61   21.13
   0 -22  -1  153.45   22.60
  -2 -22  -1   69.30   15.67
   2  22  -1   85.70   19.30
   2 -22   1   85.38   18.45
  -2  22   1   74.68   17.17
   2  22   1   95.85   21.51
   2 -22  -1   98.15   16.45
  -2 -22   1   38.76   16.89
  -2 -22   1   62.66   16.36
  -2  22  -1   76.94   17.52
   2 -22  -1   77.38   17.43
  -4 -22  -1   66.09   17.85
   4 -22   1   70.04   17.90
   4  22  -1   53.65   16.52
  -4  22   1   65.83   15.26
   4 -22  -1   74.82   16.93
  -4  22  -1   65.64   15.71
   4  22   1  110.04   23.28
   4 -22  -1   59.05   12.70
   6  22  -1   45.94   16.03
  -6  22   1   50.00   14.32
   6 -22  -1   40.68   11.58
   6  22   1   48.97   16.54
  -6  22  -1   53.11   14.31
  -8  22   1   30.30   12.25
   8  22  -1   -2.33   10.16
   8 -22   1    7.84   10.84
   8 -22   1   32.69   10.75
   8 -22  -1   20.66    7.94
   8 -22  -1    2.73    6.33
   8  22   1   38.93   16.14
  -8  22  -1   22.46   11.72
   1 -23   1  167.68   28.13
  -1 -23  -1  221.56   27.92
  -1  23   1  196.12   29.00
   1  23  -1  183.09   29.19
   1 -23   1  189.78   25.94
   1 -23  -1  126.86   24.66
   1  23   1  209.19   30.89
  -1  23  -1  179.78   26.95
   1 -23  -1  203.92   25.63
  -3  23   1   81.21   18.35
   3 -23   1   94.60   20.49
  -3 -23  -1  117.16   24.00
   3  23  -1  134.33   24.94
  -3  23  -1  107.86   21.27
   3 -23  -1  114.34   17.19
   3 -23  -1  112.42   21.68
   3  23   1   87.14   20.63
   5  23  -1   75.03   20.32
  -5  23   1   69.61   17.22
   5 -23  -1   74.52   17.01
   5 -23  -1   60.18   12.82
   5  23   1   84.04   20.40
  -5  23  -1  107.64   20.46
   7 -23   1   37.78   11.45
   7 -23   1   42.79   15.90
   7  23  -1   69.84   20.24
  -7  23   1   45.53   14.19
   7 -23  -1    3.23    6.97
   7  23   1   19.56   14.05
   7 -23  -1   37.85    9.90
  -7  23  -1   37.93   13.19
   9  23  -1    7.64   13.75
  -9  23   1   42.58   13.83
   9 -23   1   24.98    9.98
   9 -23  -1   -0.69    2.90
   9 -23  -1   -0.57    6.35
   9  23   1   14.01   14.67
  -9  23  -1    9.32    9.71
   0  24   1   85.18   19.72
   0 -24  -1   85.01   20.42
   0  24  -1   74.40   18.33
   0 -24  -1  109.88   18.83
  -2  24   1   53.92   16.38
   2  24  -1   31.78   12.75
   2  24   1   27.95   13.99
   2 -24  -1   45.10   12.13
  -2  24  -1   32.62   12.58
   2 -24  -1   61.31   16.16
   4  24  -1   54.62   16.68
  -4  24   1   43.17   14.53
  -4  24  -1   34.11   12.47
   4  24   1   86.01   20.84
   4 -24  -1   34.27   10.22
   4 -24  -1   42.95   14.21
   6 -24   1   58.27   19.12
  -6  24   1   46.97   14.73
   6  24  -1   48.81   15.95
   6 -24  -1   29.33   12.19
   6 -24  -1   33.18    9.87
  -6  24  -1   32.77   13.95
   6  24   1   36.10   17.70
  -8  24   1   31.46   13.89
   8 -24   1   47.60   12.52
   8  24  -1   30.13   16.52
   8 -24  -1   -1.39    6.20
   8 -24  -1    4.58    4.15
   8  24   1   17.03   13.79
  -8  24  -1   24.29   13.32
   1 -25   1   70.30   19.36
  -1  25   1   85.58   20.93
   1  25  -1   86.37   18.99
  -1  25  -1   93.30   20.90
   1  25   1   76.55   20.14
   1 -25  -1   69.64   15.81
   1 -25  -1   52.16   16.44
  -3  25   1   64.38   16.63
   3  25  -1   95.47   21.11
   3 -25   1   82.72   22.75
   3 -25  -1   67.54   14.98
   3 -25  -1   43.28   15.77
   3  25   1   92.23   21.36
  -3  25  -1   47.13   14.98
   5  25  -1   62.29   18.62
  -5  25   1   58.03   16.33
   5 -25  -1   80.53   15.46
   5 -25  -1   42.53   15.36
   5  25   1   74.57   20.38
  -5  25  -1   89.86   19.21
  -7  25   1   54.41   15.62
   7  25  -1   32.71   17.25
   7 -25   1   16.42   10.03
  -7  25  -1   52.22   16.03
   7  25   1   27.79   16.43
   7 -25  -1    2.06    7.37
   7 -25  -1   18.96    7.52
   0 -26  -1   25.92   11.60
   0  26  -1   37.61   14.00
   0  26   1   48.82   14.78
  -2  26   1   20.36   12.13
   2  26  -1    8.85   10.05
   2 -26  -1   40.71   12.59
   2 -26  -1   -3.12    8.47
   2  26   1   11.24   10.58
  -2  26  -1   23.17   12.73
   4  26  -1   24.59   13.72
  -4  26   1   18.56   13.41
   4  26   1   30.27   15.39
  -4  26  -1   12.52   10.38
   4 -26  -1   13.38   12.59
   4 -26  -1   13.81    8.91
  -6  26   1   24.35   13.15
   6  26  -1    5.86   10.37
  -6  26  -1    5.04    9.45
   6 -26  -1   -5.27    7.04
   6 -26  -1   -1.66    4.03
   6  26   1    4.61   11.43
  -8  26  -1    1.74    8.26
   1  27  -1   38.63   16.95
  -1  27   1   51.29   16.11
   1 -27  -1   39.73   14.36
  -1  27  -1   38.44   13.51
   1  27   1   17.13   12.92
  -3  27   1   59.98   16.33
   3  27  -1   47.92   16.58
   3  27   1   42.50   15.29
  -3  27  -1   26.60   12.84
   3 -27  -1   43.44   16.44
  -5  27   1   56.52   16.60
   5  27  -1   31.60   15.53
  -5  27  -1   63.02   17.77
   5  27   1   20.33   15.18
   5 -27  -1   34.26   14.30
   5 -27  -1   44.01   12.20
   7  27  -1    5.62   13.54
  -7  27   1    4.00    9.63
   7 -27  -1   -0.65    4.09
   7  27   1   53.64   19.03
  -7  27  -1   19.79   14.33
   7 -27  -1   -1.89    7.73
   7 -27  -1    1.76    5.20
   0  28   1   29.51   14.70
   0  28  -1   19.09   13.09
  -2  28   1   25.08   14.19
   2  28  -1   15.94   11.67
   2  28   1   18.78   12.58
  -2  28  -1   35.70   13.46
  -4  28   1   21.84   14.26
   4  28  -1   15.76   12.91
   4  28   1    8.13   10.30
  -4  28  -1   34.29   15.17
  -6  28   1    5.56    9.53
   6  28  -1   11.78   12.42
  -6  28  -1   14.31   12.07
   6 -28  -1   -0.60    8.08
   6  28   1    4.32   11.92
   1  29  -1   34.59   16.17
  -1  29   1   46.00   16.25
   1  29   1    9.40   11.42
  -1  29  -1   36.88   14.13
  -3  29   1   19.64   13.25
   3  29  -1   37.74   17.16
   3  29   1   59.65   18.60
  -3  29  -1   36.51   13.45
   3 -29  -1   29.31   18.30
   5  29  -1    8.35   10.88
  -5  29   1   20.88   13.87
   5  29   1   43.12   19.58
  -5  29  -1   13.96   13.02
   5 -29  -1   -1.48    5.78
   0  30   1   12.06   12.28
   0  30  -1    9.36   11.32
   2  30  -1   18.75   12.48
  -2  30   1    6.69   11.22
   2  30   1   13.19   13.59
  -2  30  -1    9.07   12.55
  -4  30   1   18.55   13.85
   4  30  -1   35.76   17.12
   4  30   1    2.84   10.25
  -4  30  -1   13.77   13.14
   1  31  -1   14.08   12.17
  -1  31   1   17.78   14.19
   1  31   1   21.07   14.71
  -1  31  -1   29.57   12.90
   3  31  -1   27.77   16.26
  -3  31   1  -10.54    7.02
  -3  31  -1   13.08   12.65
   3  31   1    3.18   11.34
   0  32  -1    6.78   11.61
   0  32   1    6.60   12.29
   0   0   2 8800.69  504.25
   0   0   2 8695.99  431.58
   0   0  -2 7500.76  353.73
   0   0  -2 7253.18  361.79
  -2   0   2 6759.64  329.68
   2   0  -2 8054.36  456.41
  -2   0  -2 7562.90  513.73
   2   0   2 7370.85  516.21
  -2   0  -2 7246.76  365.68
  -2   0   2 7029.21  416.83
   2   0   2 7199.12  367.15
   2   0  -2 7038.06  332.75
   4   0   2  849.24   48.09
   4   0  -2  869.18   42.17
   4   0  -2  924.13   44.66
  -4   0  -2  970.21   46.47
  -4   0  -2  946.52   48.97
  -4   0   2  883.94   43.59
   4   0  -2  871.20   43.99
  -4   0   2  888.75   44.23
   4   0   2  939.48   46.80
  -6   0   2  561.79   32.43
  -6   0  -2  575.61   34.09
  -6   0   2  613.20   32.43
   6   0  -2  578.38   32.78
   6   0   2  568.24   34.53
   6   0  -2  576.44   30.54
  -6   0  -2  545.73   36.41
   6   0   2  566.12   36.73
   6   0  -2  561.36   34.07
   8   0  -2  686.80   37.52
  -8   0   2  546.35   35.31
  -8   0  -2  590.55   37.32
   8   0   2  543.00   39.31
  -8   0   2  607.11   35.43
  -8   0  -2  604.66   40.30
   8   0   2  509.09   36.25
   8   0  -2  572.42   37.83
   8   0  -2  576.11   33.02
  10   0   2   87.37   17.50
 -10   0   2  103.14   16.89
  10   0  -2  111.15   17.51
  10   0  -2  153.01   21.01
 -10   0  -2  105.18   19.08
  10   0  -2   94.78   13.15
 -12   0   2   71.52   16.00
  12   0  -2   66.74   15.53
  12   0   2   91.56   20.24
   1  -1   2  576.32   29.56
  -1  -1  -2  536.95   29.01
   1  -1   2  562.98   27.60
   1   1   2  565.81   27.02
   1   1   2  555.36   29.10
   3  -1   2 1030.56   51.79
  -3  -1  -2 1073.02   52.27
   3  -1   2  964.48   49.54
  -3  -1  -2 1026.95   49.10
  -3   1   2  977.97   46.57
  -3  -1   2 1004.56   48.35
  -3  -1   2  889.50   49.37
   3   1   2 1021.65   51.80
  -3   1  -2 1013.74   51.44
   3   1   2 1024.72   49.49
  -3  -1   2 1039.82   46.93
  -5   1   2  524.07   28.42
   5   1  -2  528.83   30.68
   5  -1   2  515.35   31.12
  -5  -1  -2  542.65   33.58
   5  -1   2  557.84   33.58
   5   1  -2  500.67   27.40
  -5  -1  -2  552.11   30.87
  -5   1   2  557.72   28.92
   5   1  -2  525.62   30.01
   5  -1  -2  512.14   28.47
  -5   1  -2  540.37   30.98
   5   1   2  571.47   31.68
  -5   1  -2  519.32   32.83
   5  -1  -2  507.65   29.38
   5  -1  -2  494.38   26.72
  -5  -1   2  522.81   29.72
   5   1   2  477.22   32.66
  -5  -1   2  554.42   28.90
   7  -1   2  201.13   18.78
  -7  -1  -2  227.35   18.80
  -7  -1  -2  242.37   21.42
   7   1  -2  213.59   19.62
   7   1  -2  203.50   17.84
   7  -1   2  220.91   20.74
   7   1  -2  227.97   16.04
  -7   1   2  219.76   17.09
  -7   1   2  242.64   17.78
   7  -1  -2  238.67   17.76
  -7   1  -2  232.03   20.76
  -7  -1   2  230.28   17.41
   7   1   2  227.71   21.34
  -7  -1   2  229.23   18.23
   7  -1  -2  201.95   18.67
   7  -1  -2  231.94   15.70
  -7   1  -2  196.83   18.10
   7   1   2  240.21   19.40
   9   1  -2   72.93   11.33
  -9  -1  -2  105.95   18.57
   9  -1   2   83.98   14.99
   9   1  -2   85.23   14.97
  -9   1   2   92.49   14.37
   9  -1   2   80.63   16.88
   9   1  -2  101.05   15.70
  -9   1   2   84.95   13.89
  -9  -1   2   74.80   13.51
   9   1   2   91.23   15.84
  -9   1  -2  105.07   16.66
   9  -1  -2  113.84   11.23
   9  -1  -2   68.50   12.73
  -9   1  -2  114.87   19.07
   9  -1  -2   94.66   15.60
   9   1   2   86.51   17.15
  11   1  -2   70.47   14.43
 -11  -1  -2   67.97   18.91
 -11   1   2   67.23   13.51
  11  -1   2   52.39   14.43
  11   1  -2   78.20   13.47
  11   1  -2   49.67   12.04
  11  -1  -2   52.72   11.96
  11   1   2   42.49   13.56
  11  -1  -2   55.06   12.38
 -11   1  -2   69.63   17.14
 -11  -1   2   67.24   14.35
  11  -1  -2   82.63   12.77
  13  -1   2   36.13   13.53
  13   1   2   25.84   13.24
 -13  -1   2   41.11   13.55
   0  -2   2   11.88    2.75
   0   2  -2   11.11    2.39
   0  -2  -2    6.90    2.56
   0   2   2   11.66    2.84
   2   2  -2 2943.18  157.62
  -2   2   2 2980.38  146.07
   2  -2   2 2847.92  441.82
  -2  -2  -2 2887.48  175.38
   2  -2   2 2376.16  282.57
  -2  -2  -2 3278.95  315.55
  -2   2  -2 3013.02  163.95
   2   2   2 3077.65  179.84
  -2   2  -2 3000.68  183.69
  -2  -2   2 3554.64  312.83
   2  -2  -2 3451.59  209.51
  -2  -2   2 2895.02  154.80
   2   2   2 2657.51  299.49
  -4  -2  -2 1536.23   76.78
   4  -2   2 1501.61   75.91
   4  -2   2 1514.51   74.25
   4   2   2 1591.71   77.17
  -4   2  -2 1520.31   75.80
  -4  -2   2 1508.85   73.08
   6  -2   2  475.91   32.50
  -6   2   2  513.90   29.02
   6  -2   2  484.39   31.10
   6   2  -2  485.00   30.49
  -6   2   2  528.66   28.37
  -6  -2  -2  445.01   32.43
   6   2  -2  508.83   27.87
   6   2  -2  449.46   31.08
  -6  -2   2  519.51   30.71
  -6   2  -2  578.09   34.00
   6   2   2  506.67   31.12
  -6   2  -2  496.72   30.99
   6  -2  -2  497.79   26.72
   6  -2  -2  505.18   30.16
   6   2   2  483.02   33.41
   6  -2  -2  498.26   28.27
   8   2  -2  416.01   28.83
  -8   2   2  386.10   25.79
   8   2  -2  394.32   25.02
   8   2  -2  420.05   30.69
   8  -2   2  360.32   27.72
  -8   2   2  414.07   26.98
  -8  -2  -2  354.67   30.25
   8  -2   2  411.47   31.34
   8   2   2  401.22   28.47
  -8   2  -2  445.81   31.47
   8  -2  -2  360.65   27.80
  -8  -2   2  355.79   27.26
   8  -2  -2  374.26   25.78
   8  -2  -2  375.15   23.80
   8   2   2  444.21   32.43
  -8   2  -2  384.15   28.29
  10   2  -2  101.04   17.63
  10   2  -2   82.72   15.53
  10  -2   2  120.18   20.33
 -10   2   2  120.24   16.65
  10   2  -2  117.18   15.76
 -10  -2  -2  109.45   20.10
 -10   2   2  108.86   16.52
  10  -2  -2  113.84   16.02
 -10   2  -2  118.56   18.38
 -10  -2   2  105.93   17.48
  10  -2  -2  113.38   14.44
 -10   2  -2   95.27   18.42
  10   2   2   62.20   16.09
  12  -2   2   77.73   18.92
  12   2  -2   54.12   14.74
 -12  -2   2   75.83   17.20
  12  -2  -2   55.88   13.12
  12   2   2   79.62   17.99
  -1  -3  -2  211.01   13.91
  -1   3   2  204.36   10.87
   1  -3   2  225.60   13.24
   1   3  -2  191.46   11.57
   1   3   2  206.13   13.73
  -1   3  -2  197.97   12.62
  -1  -3   2  214.78   12.51
   1  -3  -2  212.20   10.95
   3   3  -2  232.74   13.17
   3  -3   2  230.48   16.05
   3   3  -2  227.39   14.96
  -3   3   2  221.78   11.08
  -3  -3  -2  238.89   17.48
   3  -3   2  216.36   16.66
  -3   3   2  226.93   12.96
  -3  -3   2  236.12   17.16
  -3   3  -2  258.53   16.22
   3   3   2  250.46   15.43
  -3  -3   2  231.31   15.56
   3   3   2  256.21   18.08
  -5   3   2  181.69   13.49
   5  -3   2  185.47   15.59
   5   3  -2  186.42   15.63
  -5   3   2  184.25   12.19
  -5  -3  -2  191.94   17.44
   5   3  -2  211.63   16.77
   5  -3   2  221.64   17.83
   5   3  -2  213.77   13.50
   5   3   2  183.84   15.10
  -5  -3   2  205.93   15.93
   5  -3  -2  162.95   13.15
   5   3   2  177.27   16.95
   5  -3  -2  194.18   12.53
  -5   3  -2  171.76   15.88
  -5   3  -2  184.01   15.44
   5  -3  -2  201.79   11.97
   7   3  -2  238.89   19.63
   7  -3   2  189.67   19.23
   7  -3   2  201.09   18.27
  -7   3   2  206.01   16.44
   7   3  -2  205.01   15.59
   7   3  -2  235.87   20.27
  -7   3   2  220.26   15.80
  -7  -3  -2  221.46   20.74
   7   3   2  202.78   17.99
   7  -3  -2  198.09   14.37
  -7   3  -2  188.69   18.46
   7  -3  -2  199.71   15.46
   7  -3  -2  203.76   17.62
   7   3   2  212.45   21.02
  -7   3  -2  187.24   17.57
  -7  -3   2  208.87   18.35
   9   3  -2   69.99   11.37
  -9   3   2   88.12   13.78
   9   3  -2   65.38   13.61
   9  -3   2   99.08   15.74
   9  -3   2   65.12   14.73
  -9   3   2   69.82   11.50
   9   3  -2   70.18   15.01
  -9  -3  -2  114.61   20.34
   9  -3  -2  101.77   10.30
   9  -3  -2   68.75   12.80
  -9  -3   2   75.37   14.75
  -9   3  -2   71.67   13.95
   9  -3  -2  102.79   14.28
   9   3   2   94.03   16.58
   9   3   2  114.60   20.95
  -9   3  -2  102.11   18.79
  11   3  -2   12.18    9.16
  11  -3   2   14.12    9.81
  11   3  -2   39.21    8.94
  11   3  -2   19.15   10.02
 -11   3   2   43.84   10.50
  11  -3  -2    0.18    3.85
  11  -3  -2   25.69    9.03
 -11   3  -2   47.44   12.71
 -11  -3   2   30.12   10.42
  11  -3  -2   36.01    9.82
  11   3   2   14.50    9.69
  13  -3   2   20.96   11.93
  13   3  -2   -2.92    4.43
  13   3  -2    0.24    5.26
  13  -3  -2   -0.76    4.28
  13  -3  -2    0.29    3.96
  13   3   2   -4.71    6.33
  13   3   2   10.38   14.74
   0  -4  -2  956.95   61.04
   0  -4  -2 1200.78  174.65
   0   4  -2  719.80   72.51
   0  -4   2 1021.52   64.27
   0   4   2 1110.79  192.98
   0   4   2  949.75   62.21
   0  -4   2  872.06  227.76
   0   4  -2 1280.81  258.73
  -2  -4  -2 1109.04   55.84
  -2  -4   2 1107.27   55.00
   2   4   2 1134.36   56.10
  -4   4   2 1190.18   55.07
   4  -4   2 1075.95   57.68
  -4  -4  -2 1082.33   60.11
   4   4  -2 1206.86   58.59
   4  -4   2 1194.81   59.92
   4   4  -2 1148.75   54.63
  -4  -4   2 1171.93   58.35
   4  -4  -2 1168.39   52.35
  -4   4  -2 1158.30   58.18
   4  -4  -2 1073.50   52.62
   4   4   2 1216.44   61.31
  -4  -4   2 1044.90   60.38
   4   4   2 1198.61   57.39
   6   4  -2  481.50   31.28
  -6   4   2  484.06   26.27
   6  -4   2  506.08   32.88
   6   4  -2  524.22   32.84
  -6   4   2  483.52   28.52
   6  -4   2  462.31   30.53
   6   4  -2  479.57   27.58
  -6  -4  -2  505.66   33.94
   6   4   2  501.02   30.54
  -6   4  -2  480.07   30.82
  -6  -4   2  460.31   30.52
   6  -4  -2  466.12   28.54
   6  -4  -2  480.67   26.47
   6  -4  -2  494.32   25.99
   6   4   2  439.49   32.54
   8  -4   2  364.81   29.10
  -8  -4  -2  366.74   29.90
  -8   4   2  360.85   25.43
  -8   4   2  354.25   23.38
   8   4  -2  304.20   23.22
   8   4  -2  391.24   29.10
   8   4  -2  377.27   29.97
   8  -4   2  413.33   28.26
   8  -4  -2  360.77   22.60
   8   4   2  383.39   27.65
   8   4   2  377.38   30.97
   8  -4  -2  364.38   23.92
   8  -4  -2  339.85   25.91
  -8  -4   2  369.10   28.01
  -8   4  -2  348.13   27.08
  10   4  -2   97.52   14.77
 -10  -4  -2  123.93   22.61
  10  -4   2   74.27   18.17
  10   4  -2  102.34   18.60
  10  -4   2   67.67   15.11
  10   4  -2   56.97   14.61
 -10   4   2   87.10   14.70
 -10   4  -2   78.70   15.69
  10   4   2   92.88   18.59
  10  -4  -2  113.30   14.01
  10  -4  -2   65.79   13.15
  10  -4  -2   67.80   11.79
 -10  -4   2  113.21   18.83
 -12   4   2   68.78   14.66
  12  -4   2   67.98   16.83
  12   4  -2   66.48   16.99
 -12  -4   2   42.08   13.68
 -12   4  -2   56.31   14.86
  12  -4  -2   54.26   11.82
  12   4   2   57.11   15.82
  -1   5   2  111.81    8.57
  -1  -5  -2  125.32   10.58
  -1   5   2  130.73    8.12
   1   5  -2  128.35    9.72
   1  -5   2  135.22   10.33
  -1  -5   2  118.16   10.26
   1  -5  -2  132.62    8.21
  -1   5  -2  115.59    9.72
   1   5   2  129.79   10.49
   3  -5   2  616.42   33.34
   3  -5   2  608.00   32.12
  -3  -5  -2  533.61   32.97
   3   5  -2  561.74   31.67
  -3   5   2  557.96   28.43
  -3  -5   2  569.22   34.07
  -3  -5   2  531.50   31.70
   3   5   2  554.50   33.32
  -3   5  -2  558.74   31.62
   5   5  -2  658.89   34.14
   5  -5   2  550.75   36.27
  -5   5   2  682.93   35.01
   5  -5   2  607.43   38.03
   5   5  -2  641.17   38.61
  -5  -5  -2  682.04   40.56
  -5   5  -2  632.09   37.37
   5  -5  -2  652.13   31.75
  -5  -5   2  694.90   38.37
   5   5   2  656.87   40.27
   5   5   2  633.80   36.29
   5  -5  -2  659.45   32.12
   7   5  -2  301.74   19.82
   7  -5   2  231.81   22.46
   7   5  -2  289.44   23.57
   7   5  -2  289.30   24.55
  -7  -5  -2  261.18   24.03
   7  -5   2  266.12   21.62
  -7   5   2  298.42   20.86
   7  -5  -2  280.08   17.64
   7   5   2  270.70   21.70
   7  -5  -2  263.76   17.83
  -7   5  -2  253.43   21.69
   7   5   2  248.94   24.06
  -7  -5   2  259.02   21.92
  -9  -5  -2   45.33   13.29
  -9   5   2   66.96   12.84
   9   5  -2   62.97   13.58
   9   5  -2   48.62    9.71
   9  -5   2   53.32   13.11
   9   5  -2   63.61   15.27
   9  -5   2   79.05   15.84
  -9  -5   2   69.86   14.04
   9  -5  -2   47.02    9.17
   9  -5  -2   49.98    8.72
   9  -5  -2   47.31   10.31
   9   5   2   57.85   13.06
  -9   5  -2   41.10   11.50
   9   5   2   66.06   15.76
  11  -5   2   24.01   10.59
  11   5  -2   61.78   15.17
  11   5  -2   45.50   10.10
 -11   5   2   47.35   11.61
  11  -5  -2   31.53    9.39
 -11   5  -2   54.80   13.67
  11   5   2   51.00   13.89
  11  -5  -2   37.38    9.38
 -11  -5   2   51.14   14.22
  13   5  -2   -1.67    5.20
 -13   5   2   26.23   10.59
  13  -5   2    2.23    7.68
  13   5  -2   -1.61    6.16
  13  -5  -2   -0.77    3.69
  13   5   2   14.66   15.37
 -13   5  -2    5.16    8.89
  13  -5  -2    0.24    3.23
  13   5   2   23.08   12.07
   0  -6  -2  329.47   19.26
   0   6  -2  329.55   19.78
   0  -6   2  314.33   19.90
   0   6   2  350.69   19.29
   2  -6   2 1543.56   74.24
   4   6  -2  745.66   38.57
   4   6  -2  748.57   42.91
   4  -6   2  808.68   42.41
  -4  -6  -2  786.77   44.67
  -4   6   2  788.73   39.12
   4  -6   2  821.74   43.48
  -4  -6   2  640.34   44.08
   4   6   2  789.65   40.90
   4  -6  -2  757.85   36.35
  -4  -6   2  755.98   42.65
   4  -6  -2  772.89   35.32
   6  -6   2  473.83   33.45
   6  -6   2  585.46   36.34
   6   6  -2  543.68   36.64
   6   6  -2  544.24   31.31
  -6   6   2  551.33   32.35
  -6  -6  -2  604.87   38.58
  -6  -6   2  516.61   35.13
   6  -6  -2  587.33   29.70
   6   6   2  550.62   37.74
   6   6   2  572.81   34.09
  -6   6  -2  586.47   35.49
   6  -6  -2  572.52   29.24
   8  -6   2  293.53   27.55
  -8   6   2  352.55   26.09
   8   6  -2  365.89   25.19
  -8  -6  -2  376.96   31.42
   8  -6   2  351.97   27.54
   8   6  -2  364.13   31.00
   8   6   2  380.26   27.58
  -8  -6   2  425.91   30.87
   8  -6  -2  407.99   23.44
  -8   6  -2  422.68   29.72
   8   6   2  301.26   29.53
   8  -6  -2  391.41   23.78
 -10  -6  -2   61.49   15.48
  10  -6   2   90.06   17.52
 -10   6   2   79.73   14.13
  10   6  -2  101.27   15.17
  10   6  -2   51.62   14.74
  10  -6  -2   72.78   10.97
  10  -6  -2   81.61   12.60
  10   6   2   94.09   19.95
 -10  -6   2   80.89   16.65
  10  -6  -2   51.49   11.18
  10   6   2   89.28   18.99
 -10   6  -2   66.89   14.97
  12   6  -2   36.84   13.54
 -12   6   2   66.47   14.61
  12  -6   2   59.98   15.91
  12   6   2   67.68   17.92
 -12   6  -2   65.42   15.05
  12   6   2   63.44   21.75
   1   7  -2  400.93   24.20
   1  -7   2  435.60   24.70
  -1  -7  -2  372.61   23.93
  -1   7   2  430.79   23.85
   1   7   2  394.63   24.07
  -1  -7   2  373.76   24.54
  -1   7  -2  418.30   24.19
   1  -7  -2  408.01   21.81
  -3   7   2  286.39   16.74
  -3  -7  -2  268.88   20.20
   3  -7   2  276.77   18.96
   3   7  -2  250.82   19.22
   3   7   2  298.76   20.75
  -3  -7   2  225.57   20.17
   3  -7  -2  260.65   13.39
  -3  -7   2  251.79   19.28
   3  -7  -2  233.85   13.89
  -3   7  -2  281.10   19.01
   5  -7   2  355.18   27.21
  -5   7   2  463.98   25.73
   5   7  -2  408.42   24.29
   5  -7   2  449.84   28.06
  -5  -7  -2  384.28   29.15
   5   7  -2  417.79   29.39
   5  -7  -2  422.34   21.37
   5  -7  -2  389.14   22.37
  -5   7  -2  440.59   28.25
   5   7   2  427.70   26.48
  -5  -7   2  396.65   28.21
   5   7   2  417.01   29.84
   7  -7   2  303.35   23.65
   7   7  -2  341.07   27.86
  -7  -7  -2  274.54   26.10
  -7   7   2  277.31   21.72
   7  -7   2  278.71   24.29
   7   7  -2  315.66   21.50
  -7   7  -2  318.68   24.66
   7  -7  -2  311.00   18.87
  -7  -7   2  322.36   25.70
   7   7   2  295.52   26.73
   7   7   2  288.72   22.50
   7  -7  -2  291.73   18.95
  -9  -7  -2   96.03   18.76
   9  -7   2   71.43   14.65
  -9   7   2   78.88   13.70
   9   7  -2   80.12   13.20
   9   7  -2   76.60   16.43
   9  -7   2   54.46   12.29
   9  -7  -2   64.82    9.73
   9  -7  -2   53.09   11.46
  -9  -7   2   52.41   13.12
  -9   7  -2   58.78   13.24
   9  -7  -2   64.74    9.40
   9   7   2   43.00   12.74
  11   7  -2   38.20   10.25
  11   7  -2   41.77   13.98
 -11   7   2   50.18   11.72
  11  -7   2   52.91   13.21
  11  -7  -2   36.48    7.93
 -11   7  -2   34.72   11.88
  11   7   2   30.52   13.51
  11   7   2   53.27   18.23
 -11  -7   2   55.37   15.88
  13  -7   2   10.30    9.95
 -13   7   2   13.20    9.37
  13   7  -2    5.38    9.22
 -13   7  -2   16.85   10.72
  13   7   2    9.40   10.77
  13   7   2    7.04   14.50
   0   8   2  534.58   28.97
   0  -8  -2  568.04   29.55
   0   8   2  476.69   30.33
   0  -8   2  541.02   30.77
   0   8  -2  501.80   29.87
  -2  -8  -2 1644.28   81.00
   2   8  -2 1677.05   80.57
   2  -8   2 1639.04   79.81
   2   8   2 1675.69   81.02
  -2  -8   2 1556.42   81.67
   4   8  -2  861.38   46.12
  -4   8   2  796.08   40.65
   4  -8   2  790.64   43.38
  -4  -8  -2  718.26   45.05
   4  -8   2  786.18   44.14
  -4  -8   2  733.76   44.13
  -4  -8   2  744.98   47.41
   4  -8  -2  753.56   38.20
  -4   8  -2  760.06   43.43
   4   8   2  786.09   45.71
   4  -8  -2  784.79   36.58
  -6   8   2  473.96   29.42
   6   8  -2  541.73   35.79
   6  -8   2  472.97   31.72
   6  -8   2  518.96   33.35
  -6  -8  -2  483.10   34.57
   6   8  -2  473.67   28.49
   6  -8  -2  479.65   26.59
  -6   8  -2  444.97   31.48
  -6  -8   2  464.56   33.20
   6  -8  -2  480.38   25.27
   6   8   2  431.01   33.72
   6   8   2  480.41   30.59
   8  -8   2  291.93   23.04
   8  -8   2  241.12   22.97
  -8   8   2  250.68   20.89
   8   8  -2  240.85   29.79
  -8  -8  -2  259.39   25.28
   8   8   2  249.24   25.50
   8   8   2  239.96   21.79
  -8  -8   2  215.79   22.12
   8  -8  -2  226.42   16.58
   8  -8  -2  245.65   17.55
  -8   8  -2  314.02   24.57
 -10   8   2   97.09   16.56
  10   8  -2   96.34   15.04
  10   8  -2   81.39   16.49
  10  -8   2   94.82   17.47
 -10  -8   2  105.65   19.25
 -10   8  -2   72.35   15.72
  10   8   2   62.94   16.71
  10  -8  -2   96.11   12.44
  10  -8  -2   73.40   10.97
  10   8   2   68.28   20.52
  10  -8  -2   64.01   11.52
  12  -8   2   69.92   16.87
  12   8  -2   45.58   14.39
 -12   8   2   80.69   15.64
 -12   8  -2   92.20   19.00
  12   8   2   62.41   18.59
  12   8   2   85.07   24.80
   1  -9   2  446.80   27.11
  -1  -9  -2  427.46   26.59
  -1   9   2  438.24   26.59
   1   9  -2  420.74   26.75
  -1  -9   2  369.21   26.86
   1  -9  -2  427.81   24.16
  -1   9  -2  448.57   26.79
   1   9   2  414.54   28.54
   1   9   2  449.72   26.72
   3  -9   2  213.64   17.12
   3   9  -2  227.23   18.65
  -3  -9  -2  250.31   19.64
  -3   9   2  209.58   15.44
  -3  -9   2  215.97   20.03
   3   9   2  188.72   17.81
   3  -9  -2  209.75   14.24
   3  -9  -2  215.07   12.92
  -3   9  -2  268.42   18.77
  -3  -9   2  172.70   16.94
  -5   9   2  229.46   17.38
   5   9  -2  256.78   21.91
  -5  -9  -2  220.21   21.07
   5  -9   2  234.23   19.76
   5  -9   2  219.46   18.86
   5  -9  -2  244.50   13.95
   5   9   2  212.73   20.89
  -5  -9   2  228.98   20.60
   5  -9  -2  233.29   15.55
  -5   9  -2  259.65   20.55
   7   9  -2  200.01   16.28
  -7   9   2  185.82   17.11
  -7  -9  -2  241.73   28.85
   7   9  -2  197.57   25.85
   7  -9   2  210.85   18.58
   7  -9   2  198.34   19.66
  -7  -9   2  195.05   19.91
  -7   9  -2  190.40   18.93
   7  -9  -2  191.55   14.43
   7   9   2  180.78   17.49
   7  -9  -2  174.32   12.95
   7   9   2  140.54   22.31
   9   9  -2   49.06   14.64
   9  -9   2   62.44   14.30
   9  -9   2   70.84   15.14
  -9  -9  -2   69.65   16.83
  -9   9   2   30.91    9.52
   9   9  -2   63.57   11.54
  -9  -9   2   67.97   16.23
   9  -9  -2   51.93    8.43
   9  -9  -2   56.80    8.98
   9   9   2   61.89   18.41
   9   9   2   81.71   17.77
  -9   9  -2   38.26   11.29
  11  -9   2   21.01   10.01
  11   9  -2   46.21   14.47
 -11   9   2   46.32   12.05
  11   9  -2   44.18   11.60
 -11   9  -2   36.66   11.73
  11   9   2   19.36   12.07
  11   9   2   17.62   13.67
   0 -10   2 1351.43   68.58
   0  10   2 1266.37   68.34
   0  10   2 1375.27   66.52
   0  10  -2 1359.63   67.85
   0 -10  -2 1318.37   65.91
  -2  10   2 1421.29   67.99
   2  10  -2 1475.80   70.63
  -2 -10  -2 1350.17   69.71
   2 -10   2 1248.56   68.21
   2 -10  -2 1381.17   64.58
   2 -10  -2 1183.41   65.23
   2  10   2 1262.74   71.99
  -2  10  -2 1615.54   70.45
  -2 -10   2 1299.11   71.23
   2  10   2 1324.96   69.47
   4  10  -2  468.10   31.36
  -4  10   2  420.73   26.52
  -4 -10  -2  517.82   32.81
   4 -10   2  466.15   29.32
  -4 -10   2  426.79   30.05
   4 -10  -2  432.32   25.05
  -4 -10   2  394.97   32.49
  -4  10  -2  444.87   29.41
   4  10   2  386.04   32.87
   4  10   2  414.89   30.30
   6  10  -2  517.87   35.29
   6 -10   2  444.87   31.18
  -6  10   2  452.66   28.86
   6 -10   2  439.73   30.36
  -6 -10  -2  403.77   33.05
   6  10  -2  476.98   27.90
  -6 -10   2  411.34   31.69
   6 -10  -2  407.69   25.38
   6 -10  -2  461.57   24.00
   6  10   2  468.22   29.67
  -6  10  -2  433.28   30.90
   6  10   2  414.68   33.01
   6  10   2  343.69   34.78
  -8 -10  -2  251.31   26.53
   8 -10   2  264.77   23.23
   8 -10   2  254.52   24.31
   8  10  -2  271.24   20.89
   8  10  -2  307.80   28.33
  -8  10   2  250.66   22.01
   8  10   2  302.40   28.53
  -8  10  -2  350.02   26.97
   8 -10  -2  267.66   17.80
   8  10   2  256.35   37.12
   8 -10  -2  268.40   18.92
   8  10   2  279.47   23.36
  -8 -10   2  283.46   26.30
  10  10  -2   59.96   16.60
  10 -10   2   63.63   14.60
 -10  10   2   38.68   10.73
  10  10  -2   69.58   12.99
  10  10   2   44.95   17.36
  10 -10  -2   42.33    9.89
 -10  10  -2   64.12   14.88
  10  10   2   63.33   17.39
 -10 -10   2   64.19   16.42
  10 -10  -2   52.05    8.50
  12 -10   2   44.88   14.20
  12  10  -2   49.85   15.81
 -12  10   2   82.35   17.72
 -12  10  -2   70.81   17.09
  12  10   2   57.08   20.36
  12  10   2   84.73   20.79
  -1  11   2  455.13   29.19
   1 -11   2  468.88   29.76
  -1 -11  -2  469.16   29.02
   1  11  -2  469.30   29.81
   1 -11  -2  418.10   26.16
  -1  11  -2  399.78   28.10
   1  11   2  429.87   30.85
  -1 -11   2  452.39   30.70
   1  11   2  505.68   29.66
  -3 -11  -2  346.33   25.66
   3  11  -2  342.55   25.61
   3 -11   2  317.64   23.58
  -3  11   2  387.62   23.58
   3 -11  -2  340.80   19.69
   3  11   2  287.99   26.82
   3 -11  -2  309.83   20.89
  -3 -11   2  328.22   27.26
   3  11   2  360.84   25.94
  -3 -11   2  309.15   24.59
  -3  11  -2  319.56   23.76
  -5  11   2  226.75   19.26
  -5 -11  -2  268.07   24.13
   5 -11   2  299.87   22.75
   5 -11   2  272.18   22.37
   5  11  -2  332.83   26.60
   5 -11  -2  234.74   17.74
   5  11   2  347.11   26.68
  -5 -11   2  272.23   26.74
  -5  11  -2  297.15   23.50
   5 -11  -2  307.60   16.98
  -5 -11   2  261.87   23.33
   5  11   2  232.57   30.97
  -7  11   2  128.27   17.08
   7 -11   2  108.72   17.79
   7  11  -2  123.51   12.95
   7 -11   2  145.01   19.59
   7  11  -2  167.02   24.06
  -7 -11  -2  159.45   23.78
   7  11   2  150.40   19.37
   7 -11  -2  131.45   10.61
   7  11   2  140.88   25.89
   7  11   2  136.76   22.08
  -7  11  -2  120.56   18.57
   7 -11  -2  154.44   12.77
  -7 -11   2  125.21   20.66
  -9  11   2   26.70    9.09
   9  11  -2   34.10   12.73
   9  11  -2   20.88    7.45
   9 -11   2   30.10   10.10
   9 -11   2   26.84    9.75
   9  11   2   24.27   11.10
  -9  11  -2   36.18   11.27
   9 -11  -2   18.15    6.24
  -9 -11   2   30.34   11.68
   9  11   2   50.72   16.91
   9 -11  -2   31.91    6.19
 -11  11   2   44.34   11.91
  11 -11   2   48.25   13.94
  11  11  -2   63.25   16.87
  11  11   2   38.76   16.52
  11  11   2   53.40   16.74
 -11  11  -2   59.87   15.41
   0  12   2  594.35   37.25
   0 -12   2  553.09   36.27
   0  12  -2  606.32   36.19
   0 -12  -2  567.59   34.07
  -2 -12  -2  683.69   43.23
   2  12  -2  812.59   45.29
   2 -12   2  721.64   43.12
  -2  12   2  766.99   42.74
  -2 -12   2  648.45   44.90
  -2  12  -2  873.83   44.68
   2 -12  -2  702.02   40.86
   2 -12  -2  754.62   39.28
   2  12   2  735.36   43.62
   2  12   2  704.43   46.14
   4  12  -2  396.59   30.77
  -4 -12  -2  478.09   32.56
   4 -12   2  408.70   28.91
  -4  12   2  480.50   28.26
   4  12   2  402.49   34.12
   4  12   2  417.01   30.97
  -4 -12   2  347.87   31.74
  -4 -12   2  411.40   30.50
   4 -12  -2  392.65   25.49
  -4  12  -2  451.70   30.03
   6 -12   2  339.03   27.30
  -6 -12  -2  363.53   30.92
   6  12  -2  387.99   32.47
  -6  12   2  403.07   27.09
   6 -12   2  355.43   28.05
   6  12   2  409.35   32.38
   6 -12  -2  379.18   24.20
  -6  12  -2  398.41   29.65
   6 -12  -2  389.78   22.01
   6  12   2  360.69   35.06
  -6 -12   2  394.71   31.03
  -8 -12  -2  197.53   28.84
  -8  12   2  164.11   17.73
   8  12  -2  286.46   35.15
   8 -12   2  155.00   22.41
   8  12  -2  206.00   17.30
   8 -12   2  214.21   21.11
   8 -12  -2  182.35   13.41
  -8  12  -2  136.46   22.13
   8  12   2  170.69   25.69
  -8 -12   2  170.62   25.24
   8  12   2  174.09   30.46
   8 -12  -2  188.97   15.17
 -10  12   2   39.47   11.16
  10 -12   2   59.10   13.76
  10  12  -2   54.27   12.72
  10 -12   2   62.70   15.84
  10  12  -2   36.31   13.66
 -10  12  -2   63.27   14.97
  10  12   2   58.10   20.11
  10  12   2   73.83   17.52
  12 -12   2   72.84   17.66
  12  12  -2   43.72   15.43
 -12  12   2   71.55   16.38
 -12  12  -2   48.92   14.79
  12  12   2   52.27   16.86
  12  12   2   47.39   19.06
   1 -13   2  226.23   20.46
  -1  13   2  246.84   20.94
   1  13  -2  254.68   21.42
  -1 -13  -2  221.67   19.14
  -1  13  -2  272.30   21.18
   1 -13  -2  237.21   19.87
   1  13   2  243.07   22.68
  -1 -13   2  211.75   20.92
   1 -13  -2  267.25   18.72
   3  13  -2  119.27   18.10
   3 -13   2   97.37   15.73
  -3  13   2  149.91   13.85
  -3 -13  -2   94.20   15.71
   3  13   2  101.51   18.42
   3 -13  -2   94.04   13.13
   3  13   2  111.53   17.02
  -3 -13   2  139.14   22.32
  -3 -13   2  129.65   18.71
   3 -13  -2  104.31   10.01
  -3  13  -2  114.39   16.31
   5  13  -2  168.42   23.07
   5 -13   2  116.84   17.50
  -5 -13  -2  100.01   17.99
  -5  13   2  122.58   16.08
   5 -13  -2  103.88    9.48
   5 -13  -2   98.85   13.24
   5  13   2  109.53   18.22
  -5  13  -2   94.22   16.03
  -5 -13   2  133.65   23.98
   5  13   2  121.75   23.38
  -5 -13   2   96.73   17.58
   7  13  -2  147.78   24.59
   7 -13   2  150.16   20.27
   7 -13   2  103.25   17.87
   7  13  -2  140.68   17.57
  -7  13   2  126.11   17.95
  -7 -13  -2  158.93   24.45
   7  13   2  144.43   18.98
  -7  13  -2  130.97   20.74
   7 -13  -2   93.38    9.61
   7  13   2  125.77   26.85
   7  13   2  146.81   23.02
  -7 -13   2  171.59   24.75
   7 -13  -2  120.50   12.11
   9  13  -2   38.09   12.91
  -9  13   2   34.01   10.54
   9  13  -2   36.08   10.10
   9 -13   2   43.79   12.56
   9  13   2   23.00   11.28
  -9 -13   2   39.59   13.61
  -9  13  -2   32.53   11.35
   9  13   2   28.22   15.57
   9 -13  -2   40.16    6.76
   9 -13  -2   21.08    5.90
  11 -13   2   18.24   10.31
 -11  13   2   19.27    9.64
  11  13  -2    7.44   11.17
 -11  13  -2   14.48    9.95
  11  13   2   10.06   10.67
  11  13   2   13.22   14.83
   0  14  -2  127.23   18.02
   0  14   2  113.61   17.69
   0 -14  -2  151.40   17.95
   0 -14   2  135.73   19.80
   2  14  -2  518.64   35.32
  -2  14   2  559.54   34.33
  -2 -14  -2  492.59   33.82
   2 -14   2  505.02   34.14
  -2 -14   2  450.65   35.70
  -2  14  -2  523.09   34.05
   2  14   2  497.89   34.30
   2 -14  -2  464.14   31.61
  -2 -14   2  499.40   34.59
   2 -14  -2  513.90   30.15
   2  14   2  502.20   37.04
  -4  14   2  472.08   29.97
  -4 -14  -2  384.13   31.41
   4 -14   2  386.95   29.93
   4  14  -2  445.25   33.13
   4  14   2  420.26   35.60
   4  14   2  395.38   31.53
  -4 -14   2  408.38   31.50
   4 -14  -2  404.78   27.12
  -4  14  -2  449.95   31.20
   4 -14  -2  422.99   25.07
  -4 -14   2  386.99   34.36
   6 -14   2  229.34   20.88
   6  14  -2  232.23   29.28
  -6  14   2  214.54   19.41
   6 -14   2  197.01   20.65
  -6 -14   2  246.64   29.97
   6 -14  -2  244.28   15.99
   6  14   2  215.32   28.18
   6  14   2  173.97   30.02
   6 -14  -2  190.88   17.07
  -6  14  -2  240.39   22.27
   8  14  -2  152.27   15.22
   8 -14   2  141.57   21.66
   8  14  -2  146.50   24.83
  -8  14   2  133.71   19.84
   8 -14   2  103.26   18.08
  -8  14  -2  111.43   19.41
   8  14   2  130.13   26.52
  -8 -14   2  111.04   20.88
   8  14   2  123.05   22.14
   8 -14  -2  109.04   10.13
   8 -14  -2  109.32   13.79
  10  14  -2   50.41   15.12
 -10  14   2   71.58   15.32
  10 -14   2   55.24   14.48
  10  14   2   73.68   19.24
  10  14   2   54.29   19.22
 -10  14  -2   59.84   15.52
  12  14  -2   28.72   12.75
  12 -14   2   -2.05    7.52
 -12  14   2   58.33   14.73
  12  14   2   56.44   18.11
  12  14   2   65.07   22.22
 -12  14  -2   21.20   12.38
  -1 -15  -2   89.34   14.33
   1  15  -2  119.39   18.35
   1 -15   2  104.05   17.08
  -1  15   2  110.50   17.12
   1 -15  -2  102.73   13.72
  -1  15  -2   86.54   15.46
   1  15   2   94.20   17.24
   1 -15  -2   58.43   12.32
  -1 -15   2   81.98   16.67
  -3 -15  -2  117.68   18.46
   3  15  -2  168.63   22.99
   3 -15   2  171.80   22.32
  -3  15   2  134.41   18.63
  -3 -15   2  165.48   21.58
   3 -15  -2  129.41   12.55
   3 -15  -2  144.52   18.46
   3  15   2  148.92   20.67
  -3 -15   2  124.04   22.13
  -3  15  -2  167.14   17.09
   3  15   2  139.88   22.93
   5  15  -2  135.98   22.93
  -5  15   2  183.76   17.88
  -5 -15  -2  138.72   21.73
   5 -15   2  186.40   24.12
  -5 -15   2  212.15   30.55
   5  15   2  147.75   26.36
   5 -15  -2  180.78   15.89
  -5  15  -2  158.65   21.63
  -5 -15   2  151.13   22.36
   5  15   2  163.19   24.37
   7 -15   2  136.08   20.69
   7 -15   2  130.97   19.47
   7  15  -2  117.86   21.47
  -7  15   2  109.77   17.79
   7  15   2   94.39   22.96
  -7 -15   2  147.03   23.60
  -7  15  -2  107.10   18.92
   7 -15  -2  123.13   12.97
   7  15   2  102.68   20.71
   7 -15  -2  128.04   11.08
   9  15  -2   10.84   11.44
   9 -15   2   25.89   10.07
  -9  15   2   41.53   11.39
  -9  15  -2   42.99   13.11
   9  15   2   32.37   12.60
   9  15   2   30.87   17.45
  11  15  -2   18.99   13.00
  11 -15   2    6.89    7.50
 -11  15   2   25.53   11.02
  11  15   2   -4.56   11.49
  11  15   2   28.38   12.78
 -11  15  -2   35.78   12.77
   0  16  -2  353.42   27.18
   0 -16   2  313.19   26.94
   0  16   2  287.90   26.19
   0 -16  -2  304.30   23.70
  -2 -16  -2  479.48   33.95
   2 -16   2  469.37   33.96
   2  16  -2  545.97   36.55
  -2  16   2  525.18   34.65
  -2  16  -2  524.48   34.74
   2 -16  -2  422.52   31.48
   2  16   2  476.17   37.03
   2 -16  -2  457.00   29.68
  -2 -16   2  384.90   32.16
  -2 -16   2  415.98   35.16
  -4 -16  -2  307.44   27.21
   4 -16   2  287.53   25.59
  -4  16   2  266.31   23.37
   4  16  -2  328.40   28.58
   4 -16  -2  288.72   20.30
  -4 -16   2  310.72   38.88
   4 -16  -2  295.41   22.75
  -4  16  -2  283.22   25.13
   4  16   2  307.52   27.61
   4  16   2  303.85   30.73
  -4 -16   2  258.83   25.44
   6 -16   2  197.35   25.38
  -6  16   2  192.51   20.11
   6 -16   2  263.12   23.13
   6  16  -2  218.01   30.54
  -6  16  -2  242.19   24.07
   6  16   2  253.05   35.92
   6 -16  -2  224.52   18.95
  -6 -16   2  212.69   29.08
   6  16   2  202.12   28.19
   6 -16  -2  212.83   16.35
   8  16  -2  160.90   27.13
   8 -16   2  152.35   22.38
  -8  16   2  133.96   20.10
   8 -16  -2  142.01   13.90
   8  16   2  168.46   30.95
   8 -16  -2  139.35   11.91
   8  16   2  135.87   24.03
  -8  16  -2  119.13   20.96
  10 -16   2   26.21   11.27
  10  16  -2   49.61   16.36
 -10  16   2   36.73   12.00
  10  16   2   45.61   19.25
  10  16   2   23.01   13.16
 -10  16  -2   27.65   12.62
   1  17  -2  153.03   21.97
  -1  17   2  162.80   22.86
   1 -17   2  172.52   24.50
  -1 -17  -2  148.90   20.15
   1 -17  -2  167.65   19.91
  -1  17  -2  190.77   19.51
   1  17   2  161.74   23.73
  -1 -17   2  158.89   24.23
   1 -17  -2  177.97   23.46
  -3  17   2  269.02   22.83
   3 -17   2  240.77   22.63
  -3 -17  -2  208.37   21.60
   3  17  -2  223.52   28.38
  -3 -17   2  248.71   33.61
   3 -17  -2  207.18   17.68
   3 -17  -2  197.38   19.69
  -3  17  -2  209.12   26.42
  -3 -17   2  229.58   27.96
   3  17   2  247.19   32.03
   5  17  -2  203.95   29.26
  -5 -17  -2  235.93   30.61
  -5  17   2  164.09   21.87
   5 -17   2  184.96   25.73
  -5 -17   2  189.49   26.47
  -5 -17   2  189.73   30.45
   5 -17  -2  203.58   18.42
  -5  17  -2  210.62   21.98
   5  17   2  218.40   29.20
   5  17   2  213.54   32.08
   5 -17  -2  173.15   15.04
  -7  17   2   91.81   16.52
   7 -17   2  128.50   20.54
   7  17  -2  102.40   21.17
   7 -17   2  132.88   21.77
   7 -17  -2  123.90   16.32
   7  17   2   97.20   20.12
  -7  17  -2  113.61   21.11
  -7 -17   2  127.83   26.49
   7 -17  -2  114.88   11.14
   9  17  -2   16.97   13.01
   9 -17   2   34.53   10.71
  -9  17   2   17.96   10.41
   9  17   2   17.59   11.87
  -9  17  -2   27.17   11.15
   9  17   2   28.01   16.81
  11  17  -2   12.14   13.58
  11 -17   2   16.33    9.95
 -11  17   2    7.76    9.62
  11  17   2   11.96   13.01
  11  17   2    0.22   12.07
 -11  17  -2    6.52    9.01
   0 -18   2  176.51   25.58
   0  18   2  146.18   22.72
   0 -18  -2  138.02   19.06
   0  18  -2  144.69   21.34
   2 -18   2  236.54   23.42
  -2  18   2  227.88   22.94
  -2 -18  -2  215.15   26.88
   2  18  -2  230.84   23.83
   2 -18  -2  218.67   19.20
   2  18   2  250.05   31.89
  -2 -18   2  187.18   28.78
  -2 -18   2  239.55   28.81
   2 -18  -2  188.17   20.36
  -2  18  -2  278.96   24.32
  -4  18   2  198.49   19.95
  -4 -18  -2  176.26   25.56
   4  18  -2  172.09   26.23
   4 -18   2  221.18   27.35
   4  18   2  229.21   32.85
  -4  18  -2  229.67   27.82
  -4 -18   2  151.92   23.71
   4 -18  -2  181.97   18.19
   4 -18  -2  163.40   15.35
  -6  18   2  198.61   25.40
   6 -18   2  167.77   24.22
   6  18  -2  172.86   27.05
  -6  18  -2  205.19   27.81
  -6 -18   2  173.57   25.54
   6 -18  -2  181.32   14.80
   6 -18  -2  147.80   13.97
   6  18   2  142.44   24.67
   6 -18  -2  182.48   17.46
   6  18   2  137.14   27.12
  -8  18   2   83.36   16.54
   8 -18   2   69.70   15.45
   8  18  -2  113.10   23.28
   8 -18   2  120.73   28.29
   8  18   2   83.58   20.14
  -8  18  -2   72.23   17.35
   8 -18  -2   99.89    9.95
   8  18   2   55.43   20.44
  10  18  -2    9.80   12.77
  10 -18   2   24.12   10.16
 -10  18   2   25.83   10.59
  10  18   2   15.11   14.41
  10  18   2   27.20   15.49
 -10  18  -2   24.58   11.95
  -1 -19  -2  116.36   18.07
   1  19  -2  100.67   18.92
  -1  19   2  100.71   19.30
   1 -19   2  108.25   19.96
  -1 -19   2  112.45   21.79
   1  19   2  108.64   20.18
  -1 -19   2   92.94   17.78
  -1  19  -2  101.32   18.30
   1 -19  -2  111.21   15.91
  -3  19   2   86.54   16.40
   3  19  -2  146.79   23.97
  -3 -19  -2  105.96   19.24
   3 -19   2  119.66   21.44
   3 -19  -2   80.98   15.01
   3 -19  -2  120.58   15.74
  -3  19  -2  116.24   19.81
   3  19   2  114.75   22.62
   5  19  -2   50.80   15.64
  -5  19   2   40.85   11.66
   5 -19   2   65.68   15.39
   5  19   2   45.05   15.97
   5 -19  -2   42.86   10.32
  -5  19  -2   64.48   15.10
   5 -19  -2   53.19    9.63
  -5 -19   2   39.39   12.33
   7 -19   2   62.69   14.59
   7  19  -2   45.38   14.97
  -7  19   2   42.46   12.83
   7 -19  -2   42.34    8.50
   7  19   2   76.14   18.74
   7 -19  -2   40.19    8.02
   7 -19  -2   48.04   10.58
  -7  19  -2   91.50   19.49
   7  19   2   50.34   15.96
   9  19  -2   40.90   15.54
   9 -19   2   32.02   10.44
  -9  19   2   11.96    8.85
   9  19   2    2.68    9.98
   9  19   2   22.50   13.44
  -9  19  -2   22.23   10.09
   0 -20   2  116.12   22.08
   0 -20  -2  164.14   21.75
   0  20   2  138.43   23.61
   0  20  -2  136.42   22.25
   2 -20   2  168.81   25.88
  -2 -20  -2  178.42   24.88
   2  20  -2  225.06   29.56
  -2  20   2  216.70   27.33
   2 -20  -2  185.70   25.64
  -2 -20   2  123.38   24.33
   2 -20  -2  172.48   17.85
   2  20   2  196.55   29.08
  -2 -20   2  195.46   26.02
  -2  20  -2  198.80   26.32
  -4 -20  -2   92.71   21.11
   4  20  -2   83.87   19.01
  -4  20   2  122.88   19.41
   4 -20   2   90.56   18.86
   4 -20  -2   49.26   12.99
   4  20   2   78.21   20.40
  -4  20  -2  104.53   19.53
   4 -20  -2  119.50   16.09
   6  20  -2   72.04   18.22
  -6  20   2   68.39   15.17
   6 -20  -2   51.68   10.31
   6  20   2   47.15   16.17
  -6  20  -2   52.03   14.14
   6 -20  -2   45.71   11.10
  -8  20   2   75.11   15.80
   8 -20   2   37.28   11.92
   8  20  -2   56.50   16.56
   8  20   2   10.38   13.48
  -8  20  -2   61.86   16.61
 -10  20   2   16.69    9.01
  10 -20   2   22.65   11.34
  10  20  -2   17.46   13.70
 -10  20  -2   14.81   10.71
  10  20   2   26.98   19.24
  -1  21   2   44.31   13.42
   1 -21   2   64.44   14.79
  -1 -21  -2   70.46   15.02
   1  21  -2   72.44   16.80
  -1 -21   2   52.32   15.58
   1  21   2   53.66   15.24
  -1  21  -2   49.66   14.17
   1 -21  -2   44.66   10.50
  -1 -21   2   76.31   16.13
   3 -21   2  108.50   20.88
  -3 -21  -2  103.17   19.82
   3  21  -2   98.00   19.81
  -3  21   2  102.73   18.78
  -3  21  -2   94.79   19.13
   3  21   2  101.17   21.91
   3 -21  -2  104.33   18.14
   3 -21  -2   83.71   14.19
   5  21  -2   50.16   15.18
  -5  21   2   29.07   11.46
   5  21   2   24.31   14.09
  -5  21  -2   55.07   13.75
   5 -21  -2   22.37    7.08
   5 -21  -2   20.76    8.46
  -7  21   2   16.45   10.34
   7  21  -2   18.58   12.58
   7 -21   2    8.40    8.02
   7 -21  -2    0.69    4.01
   7  21   2   11.87   13.83
   7 -21  -2   26.20    7.00
  -7  21  -2   37.72   12.50
   9 -21   2   18.79   10.44
  -9  21   2    7.52    8.47
   9  21  -2   12.18   12.20
  -9  21  -2   11.85   10.31
   9  21   2   23.70   17.33
   0  22  -2  198.67   28.44
   0 -22   2  152.28   25.66
   0  22   2  193.88   29.20
   0 -22  -2  172.71   23.28
  -2  22   2  248.88   25.60
  -2 -22  -2  230.71   29.29
   2 -22   2  239.34   31.70
   2  22  -2  208.94   29.88
   2  22   2  244.13   33.66
   2 -22  -2  208.67   20.46
  -2  22  -2  262.15   26.30
   2 -22  -2  171.38   25.94
   4  22  -2  131.07   23.78
  -4  22   2  135.62   22.64
   4  22   2  119.90   25.17
  -4  22  -2  155.13   23.89
   4 -22  -2  132.54   18.02
   4 -22  -2   89.79   16.67
   6  22  -2   56.77   16.76
  -6  22   2   80.94   17.38
   6  22   2   55.81   18.34
   6 -22  -2   45.29   12.38
  -6  22  -2   69.92   16.40
   6 -22  -2   61.86   11.36
   8  22  -2   96.21   23.15
   8 -22   2   35.75   13.21
  -8  22   2   82.36   16.69
   8  22   2   60.12   20.64
  -8  22  -2   65.29   17.30
  -1  23   2   60.51   16.27
  -1 -23  -2   47.83   12.55
   1  23  -2   84.93   18.82
   1  23   2   76.41   18.68
  -1  23  -2   79.14   17.93
   1 -23  -2   82.01   15.76
   3  23  -2   71.06   18.26
  -3 -23  -2   60.01   17.95
  -3  23   2   97.71   20.34
   3 -23  -2   86.63   15.14
   3  23   2  101.84   23.22
   3 -23  -2   54.60   13.51
  -3  23  -2   97.34   19.96
   5  23  -2   63.39   17.76
  -5  23   2   39.88   12.62
   5  23   2   43.68   16.94
  -5  23  -2   35.41   13.52
   5 -23  -2   60.85   12.14
   5 -23  -2   35.33   11.12
   7  23  -2   22.03   14.40
  -7  23   2   40.77   13.07
   7 -23   2    4.97    8.04
   7  23   2   35.40   14.13
  -7  23  -2   21.95   12.05
  -9  23   2    5.68    9.56
   9 -23   2    7.50    9.40
   9  23  -2   13.78   13.61
   9  23   2    5.08   12.59
  -9  23  -2   20.45   11.65
   9 -23  -2    0.46    2.26
   9 -23  -2    3.98    3.26
   0  24  -2   40.29   15.01
   0 -24   2   42.75   13.31
   0  24   2   50.17   14.81
   0 -24  -2   87.49   17.30
   2  24  -2   98.17   22.08
   2 -24   2  168.06   32.39
  -2  24   2  104.96   21.73
   2 -24  -2   82.63   15.73
   2  24   2  100.54   23.41
  -2  24  -2   90.07   20.54
   4  24  -2   94.05   21.07
  -4  24   2  142.37   24.01
   4 -24  -2  120.21   21.66
   4  24   2  134.02   27.43
   4 -24  -2   93.80   16.10
  -4  24  -2  100.83   21.02
   6  24  -2   82.84   21.49
  -6  24   2   80.35   17.94
   6  24   2   64.74   20.27
  -6  24  -2   42.83   14.53
  -8  24   2   25.83   10.79
   8  24  -2   -4.28    9.01
   8 -24   2   43.67   13.70
  -8  24  -2   19.44   13.86
   8  24   2   57.96   21.33
  -1  25   2   39.56   14.11
   1  25  -2    9.74   10.15
  -1  25  -2   24.59   12.64
   1  25   2   11.65   10.08
   1 -25  -2   26.79    9.78
  -3  25   2   36.01   12.86
   3  25  -2   62.78   17.40
  -3  25  -2   52.34   15.74
   3  25   2   47.19   16.35
   3 -25  -2   55.88   13.50
   5  25  -2    8.36   10.75
  -5  25   2   30.43   13.19
   5 -25  -2   34.56   10.39
  -5  25  -2   32.23   12.00
   5 -25  -2   -3.89    4.63
   5  25   2    6.66   12.30
   7 -25   2   32.96   11.66
   7  25  -2    5.07   12.40
  -7  25   2   32.76   13.44
  -7  25  -2   23.56   13.10
   7  25   2   14.12   14.33
   7 -25  -2   -0.82    3.38
   0  26  -2   41.84   13.99
   0  26   2   33.64   13.38
   2  26  -2   56.42   17.01
  -2  26   2   60.99   16.47
   2 -26  -2   35.83   11.79
   2  26   2   57.56   17.85
  -2  26  -2   48.01   15.36
   4  26  -2   34.20   14.86
  -4  26   2   18.99   12.21
   4  26   2   46.55   16.32
   4 -26  -2   45.00   12.16
  -4  26  -2   27.46   13.96
  -6  26   2   30.84   13.13
   6  26  -2   17.00   14.13
  -6  26  -2   12.33   10.95
   6  26   2   26.99   17.21
   6 -26  -2    0.17    3.75
   1  27  -2   14.61   10.99
  -1  27   2   29.66   14.10
  -1  27  -2    7.07    9.55
   1  27   2   26.47   12.48
   3  27  -2   34.82   16.08
  -3  27   2   44.88   15.34
  -3  27  -2    9.60   10.57
   3  27   2   17.57   13.55
   3 -27  -2   26.23   10.65
   5  27  -2    9.88   11.30
  -5  27   2    4.08   10.07
  -5  27  -2   35.61   14.21
   5  27   2   10.35   12.44
   5 -27  -2    1.73    4.94
   7  27  -2   10.96   11.98
   7 -27   2    5.09    8.33
  -7  27   2   -3.72    7.40
  -7  27  -2    6.83   10.31
   7  27   2  -10.90    8.52
   7 -27  -2   -1.00    3.93
   7 -27  -2   -0.15    3.10
   0  28   2   43.07   14.98
   0  28  -2   19.33   13.10
  -2  28   2   59.94   18.28
   2  28  -2   15.59   11.97
  -2  28  -2   38.21   14.29
   2  28   2   23.44   14.55
   2 -28  -2   22.05   13.29
   4  28  -2   10.23   11.62
  -4  28   2   26.27   14.14
   4 -28  -2   32.37   11.17
  -4  28  -2   18.34   12.38
   4  28   2   14.78   13.62
   6  28  -2   21.95   14.54
  -6  28   2    9.77   11.88
   6  28   2   14.24   15.88
  -6  28  -2   23.01   13.45
   6 -28  -2   -0.03    5.06
  -1  29   2   15.93   13.62
   1  29  -2   33.96   13.80
   1  29   2   66.67   19.90
  -1  29  -2   37.18   13.85
   3  29  -2   13.65   11.84
  -3  29   2   -1.62    8.76
  -3  29  -2   16.01   11.85
   3  29   2   13.41   13.56
   3 -29  -2   15.93   11.36
  -5  29   2   -0.88    9.39
   5  29  -2    6.17   11.58
   5  29   2   11.88   13.19
  -5  29  -2   -3.27    8.61
   5 -29  -2   -2.18    5.39
   0  30  -2   36.05   15.67
   0  30   2   41.99   16.34
  -2  30   2   21.82   14.80
   2  30  -2   18.29   12.54
   2  30   2   25.59   14.47
  -2  30  -2   21.76   14.05
  -4  30   2   22.12   13.84
   4  30  -2   21.08   14.21
  -4  30  -2   29.27   16.02
   4  30   2    8.75   12.92
  -1  31   2    7.83   12.03
   1  31  -2   26.44   13.56
   1  31   2   17.80   13.12
  -1  31  -2   10.09   11.60
   3  31  -2    7.42   11.36
  -3  31   2    5.19   10.87
   3  31   2    0.25    9.29
  -3  31  -2    8.92   10.64
   0  32  -2   35.06   14.35
   0  32   2   11.93   12.45
   0   0   3  177.74    9.74
   0   0   3  175.01   12.54
   2   0   3 1229.37   60.62
  -2   0  -3 1167.04   60.04
  -4   0  -3  842.70   48.07
   4   0   3  883.64   45.89
  -4   0  -3  892.49   45.08
  -4   0   3  866.09   42.69
  -4   0   3  841.73   41.39
   4   0   3  881.24   48.81
  -6   0  -3  162.76   14.82
   6   0   3  165.88   15.48
  -6   0   3  170.10   13.20
  -6   0  -3  181.13   17.55
   6   0  -3  145.72    9.26
   6   0  -3  165.81   10.25
   6   0   3  178.18   17.89
  -6   0   3  168.87   12.84
  -8   0   3  130.36   13.83
  -8   0  -3  175.86   17.28
   8   0  -3  150.47   12.74
   8   0   3  160.71   23.89
  -8   0   3  141.59   13.96
   8   0  -3  163.68   11.31
  -8   0  -3  188.87   24.98
   8   0   3  159.97   16.54
  10   0  -3   94.61    9.14
  10   0   3  119.51   21.82
 -10   0   3   76.71   13.30
  10   0  -3   79.18   11.18
 -10   0  -3  105.35   20.39
 -12   0   3   18.35    8.64
  12   0   3    9.48    9.47
   1   1  -3 1410.62   81.19
  -1  -1  -3 1499.93  103.36
   1  -1   3 1714.82  209.56
   1   1  -3 1602.12  234.00
  -1   1   3 1589.54  144.57
   1  -1   3 1075.80  263.17
  -1  -1  -3 1365.48  208.30
  -1   1   3 1612.92  110.22
   1   1   3 1480.71  105.16
   1  -1  -3 1490.11   72.91
   1  -1  -3 1757.81   78.68
  -1   1  -3 1496.71  108.40
  -1  -1   3 1477.30  236.18
   1   1   3 1336.81  211.85
  -1  -1   3 1553.85   81.15
   3  -1   3 3529.95  227.79
  -3  -1  -3 3933.94  407.24
   3  -1   3 3639.78  399.04
  -3   1   3 3481.81  174.31
  -3   1   3 3996.84  270.45
  -3  -1  -3 3249.53  217.48
   3   1  -3 3736.60  378.62
   3   1  -3 3523.01  186.15
  -3   1  -3 3529.51  388.03
   3   1   3 3826.74  423.49
   3  -1  -3 3389.21  178.62
  -3  -1   3 3405.68  180.41
  -3  -1   3 3986.64  328.87
   3  -1  -3 3202.52  292.67
  -3   1  -3 3756.63  230.16
   3   1   3 3384.59  222.62
  -5   1   3  345.28   20.46
   5   1  -3  386.46   18.29
   5  -1   3  393.08   27.44
  -5  -1  -3  339.37   26.02
  -5  -1  -3  375.42   23.73
  -5   1   3  360.29   20.73
   5  -1   3  324.32   23.72
   5   1  -3  360.14   17.70
   5   1   3  348.71   23.95
  -5   1  -3  363.07   26.24
   5   1   3  355.63   26.82
  -5  -1   3  380.14   21.09
  -5  -1   3  368.11   22.32
  -5   1  -3  376.71   24.05
   7  -1   3  553.69   36.47
   7   1  -3  494.20   27.65
   7   1  -3  442.77   25.22
  -7   1   3  487.16   28.78
   7  -1   3  457.50   31.89
  -7  -1  -3  488.85   35.13
  -7   1   3  476.35   28.31
   7   1   3  461.34   31.96
   7   1   3  488.90   35.60
  -7  -1   3  478.95   29.74
   7  -1  -3  483.76   23.97
   7  -1  -3  464.01   24.87
  -7   1  -3  492.52   34.87
  -7   1  -3  515.90   32.23
  -9   1   3  223.76   18.02
   9  -1   3  205.87   20.38
   9   1  -3  185.76   14.40
   9  -1   3  237.87   29.35
   9   1  -3  173.18   16.37
  -9   1   3  199.20   18.20
  -9  -1  -3  211.64   27.93
   9  -1  -3  219.49   13.82
   9   1   3  224.32   28.68
  -9   1  -3  203.24   20.32
  -9   1  -3  234.74   23.34
  -9  -1   3  222.04   19.16
   9  -1  -3  212.28   15.44
   9   1   3  211.92   20.84
 -11   1   3   94.00   14.92
  11  -1   3   80.75   18.15
  11   1   3   82.42   18.94
 -11  -1   3  124.03   18.59
  13  -1   3   24.66   13.25
  13   1   3   37.38   14.73
 -13  -1   3    9.71   10.87
   0  -2  -3   66.98    8.24
   0   2  -3   55.27    4.59
   0  -2   3   57.60    5.37
   0   2   3   59.37    7.58
  -2  -2  -3  416.12   25.06
   2  -2   3  390.10   22.73
  -2   2  -3  386.01   22.09
   2   2   3  416.15   22.05
  -2  -2   3  406.49   20.76
   2   2   3  376.96   24.62
  -4   2   3  521.17   26.47
  -4   2   3  523.04   25.78
   4   2  -3  526.46   24.59
   4  -2   3  514.13   30.77
  -4  -2  -3  556.07   34.01
   4  -2   3  579.71   34.05
   4   2  -3  537.75   24.90
  -4   2  -3  547.21   30.55
  -4  -2   3  427.63   30.14
   4   2   3  537.43   30.49
  -4  -2   3  493.08   29.08
  -4   2  -3  531.54   33.09
   4   2   3  590.83   34.44
  -6   2   3  158.69   12.96
  -6  -2  -3  189.62   18.87
   6   2  -3  188.53   13.36
   6  -2   3  182.95   22.40
   6  -2   3  156.63   15.72
   6   2  -3  172.71   11.53
  -6   2   3  175.04   12.47
  -6   2  -3  172.20   21.59
   6   2   3  168.07   21.09
  -6  -2   3  180.92   15.00
   6   2   3  190.55   16.18
  -6   2  -3  169.16   15.63
   8  -2   3  125.03   20.20
  -8  -2  -3  124.31   20.56
   8  -2   3  121.87   18.43
  -8   2   3  122.44   11.59
   8   2  -3  134.11   15.86
   8   2  -3  130.58   10.87
  -8   2   3  120.71   15.30
  -8  -2   3  141.83   17.65
   8  -2  -3  120.71    8.64
   8   2   3  141.41   21.97
   8  -2  -3  138.69    9.78
  -8   2  -3  121.07   17.81
  -8   2  -3  156.60   22.24
   8   2   3  114.80   17.99
  10   2  -3   90.15   13.01
  10   2  -3  104.02   10.51
  10  -2   3   77.07   17.59
 -10  -2  -3   82.78   18.58
 -10   2   3  109.38   14.84
 -10   2   3   95.55   15.07
  10  -2   3   61.85   15.77
  10  -2  -3   86.60    7.62
  10   2   3   86.99   18.33
  10  -2  -3   94.04    8.72
 -10   2  -3   82.39   16.62
 -10  -2   3  105.35   17.25
 -10   2  -3   81.43   15.78
  12  -2   3    7.57    9.41
  12   2  -3   -0.13    2.81
  12   2  -3   -0.82    2.98
 -12  -2   3   27.39   10.60
  12   2   3   48.84   15.37
  -1   3   3   70.34    6.15
   1   3  -3   77.41    5.46
  -1  -3  -3   90.18   10.52
   1  -3   3   68.04    7.18
  -1  -3   3   78.06    6.65
   1   3   3   85.91    8.53
  -1   3  -3   83.94    7.06
  -3   3   3 1037.48   46.71
   3  -3   3 1047.56   55.55
  -3  -3  -3 1050.30   55.66
   3  -3   3 1026.13   53.17
  -3   3   3 1057.52   46.71
   3   3   3 1082.46   52.25
   3   3   3 1071.41   55.76
  -3  -3   3 1022.65   52.65
  -3   3  -3 1085.98   52.93
  -5   3   3  193.28   13.66
   5   3  -3  214.61   12.85
   5  -3   3  216.02   17.44
  -5  -3  -3  255.52   20.63
   5   3  -3  218.32   14.30
   5  -3   3  209.18   19.09
  -5   3   3  197.01   11.85
   5   3   3  225.71   19.72
  -5  -3   3  212.78   16.27
   5   3   3  206.44   16.48
  -5   3  -3  202.35   16.72
  -7  -3  -3  500.61   36.93
   7   3  -3  542.56   31.46
   7  -3   3  481.84   33.50
  -7   3   3  511.80   30.42
   7   3  -3  511.79   28.28
   7  -3   3  513.21   36.36
  -7   3   3  548.92   28.54
  -7   3  -3  512.41   33.65
  -7  -3   3  503.15   32.63
   7   3   3  512.41   37.32
  -7   3  -3  567.51   37.22
   7   3   3  459.89   32.85
  -9   3   3  169.47   13.87
  -9  -3  -3  152.29   24.22
   9   3  -3  143.91   15.33
   9   3  -3  141.71   12.69
  -9   3   3  170.80   15.74
   9  -3   3  133.76   21.63
   9  -3   3  143.01   21.45
   9   3   3  169.25   25.03
  -9  -3   3  171.56   20.91
   9  -3  -3  133.14    8.98
  -9   3  -3  159.42   21.30
   9  -3  -3  146.32    9.85
  11   3  -3   68.97   12.88
 -11   3   3   78.72   14.29
  11  -3   3   80.89   18.42
  11   3   3  117.38   22.82
 -11  -3   3   68.08   15.36
 -11   3  -3  109.77   18.94
  13  -3   3   43.44   15.75
 -13  -3   3   38.92   13.67
  13   3   3   47.68   15.75
   0  -4   3  814.34   39.12
   0   4   3  790.70   39.28
   0  -4  -3  780.15   39.33
   0   4  -3  743.82   37.94
   2   4  -3  437.30   21.95
  -2  -4  -3  466.51   27.24
   2  -4   3  402.94   24.61
  -2   4   3  448.87   20.38
  -2  -4   3  408.57   23.83
   2   4   3  405.00   26.16
  -2   4  -3  411.15   24.29
   4   4  -3  207.35   13.68
  -4   4   3  205.01   12.60
   4  -4   3  239.34   18.96
  -4  -4  -3  232.75   19.16
   4  -4   3  215.29   16.91
   4   4  -3  195.13   12.26
  -4   4  -3  199.00   15.90
   4   4   3  210.90   18.53
  -4  -4   3  216.70   18.14
   4   4   3  182.48   14.84
  -4  -4   3  210.24   16.11
  -6   4   3  153.24   10.13
   6  -4   3  194.98   18.52
   6  -4   3  173.21   16.14
  -6   4   3  153.53   12.89
   6   4  -3  164.88   11.97
   6   4  -3  166.87   14.19
  -6  -4  -3  174.86   22.32
  -6   4  -3  161.86   15.56
  -6  -4   3  182.52   15.92
   6   4   3  155.08   14.96
   6   4   3  164.27   21.96
   8  -4   3   76.50   16.04
   8   4  -3  103.40   14.98
   8  -4   3   84.41   15.04
  -8   4   3   95.17   13.39
  -8  -4  -3   94.67   17.96
   8   4  -3   95.26   12.03
   8   4   3   96.30   18.78
   8   4   3   80.93   15.26
  -8  -4   3   78.65   14.00
  -8   4  -3   77.73   14.07
  10  -4   3   72.06   16.70
  10  -4   3   64.84   16.72
  10   4  -3   56.27   11.24
 -10   4   3   41.57   10.16
  10   4  -3   73.33   11.32
 -10  -4   3   61.21   14.26
  10   4   3   73.20   17.72
 -10   4  -3   41.83   11.70
  12  -4   3   24.74   13.82
 -12   4   3   26.27   10.35
  12   4   3   23.55   13.25
 -12  -4   3   31.14   11.83
 -12   4  -3   12.42    8.85
  -1  -5  -3 1627.95   77.86
   1   5   3 1598.98   77.53
  -3  -5  -3 2059.70  100.65
   3  -5   3 2093.57  100.49
   3  -5   3 2012.39   97.77
   5   5  -3  423.42   24.45
   5  -5   3  378.55   27.79
   5  -5   3  357.27   25.64
   5   5  -3  351.97   21.03
  -5  -5  -3  384.94   28.46
  -5   5   3  394.58   22.19
  -5  -5   3  333.62   27.44
   5   5   3  372.89   28.30
   5   5   3  388.04   24.91
  -5   5  -3  396.01   25.89
  -5  -5   3  378.26   25.50
  -7   5   3  439.33   27.31
   7   5  -3  453.96   29.44
   7  -5   3  455.15   31.05
   7  -5   3  452.28   33.42
  -7  -5  -3  438.72   33.58
   7   5  -3  442.83   25.80
  -7   5  -3  429.86   30.48
  -7  -5   3  403.48   29.74
   7   5   3  413.91   29.55
   7   5   3  414.49   33.37
   9  -5   3  155.33   22.53
   9   5  -3  130.10   17.90
   9   5  -3  153.16   13.84
  -9  -5  -3  159.36   25.04
  -9   5   3  143.39   15.08
   9  -5   3  153.06   23.71
  -9  -5   3  182.51   23.09
   9   5   3  149.37   24.71
  -9   5  -3  162.39   21.88
  11   5  -3   69.33   13.00
 -11   5   3   90.37   15.38
  11  -5   3   99.51   19.75
  11   5   3  116.57   22.87
 -11  -5   3   79.17   17.13
 -11   5  -3   81.56   16.69
  13   5  -3    0.21    4.17
   0  -6  -3  877.25   44.78
   0   6  -3  888.88   44.60
   0  -6   3  893.22   45.42
   0   6   3  905.78   44.74
   2  -6   3  495.35   29.11
  -2  -6  -3  522.95   30.91
   2   6  -3  494.02   27.32
  -2   6   3  483.70   25.24
  -2   6  -3  493.78   28.80
   2   6   3  527.67   30.86
   2  -6  -3  492.41   24.03
  -2  -6   3  532.64   29.71
   4   6  -3  296.44   19.64
  -4   6   3  317.41   17.49
   4  -6   3  258.01   21.73
  -4  -6  -3  291.56   23.26
   4   6  -3  288.40   17.24
   4  -6   3  289.41   21.19
  -4  -6   3  292.31   21.55
   4   6   3  311.13   20.24
  -4  -6   3  294.30   23.42
  -4   6  -3  307.53   21.50
   4   6   3  286.24   23.15
   6  -6   3  288.42   24.54
  -6  -6  -3  311.50   26.12
   6  -6   3  292.81   23.18
   6   6  -3  290.67   18.92
   6   6  -3  291.37   21.95
  -6   6   3  313.55   20.17
  -6   6  -3  314.23   23.40
  -6  -6   3  270.98   22.43
   6   6   3  295.32   22.17
   6   6   3  324.28   26.46
   8   6  -3  101.16   15.53
  -8   6   3  107.97   14.40
   8  -6   3   78.50   16.44
   8  -6   3   94.85   16.45
  -8  -6  -3   92.77   18.33
   8   6  -3  104.64   10.96
  -8   6  -3  103.04   17.00
   8   6   3   91.45   18.93
  -8  -6   3  132.57   19.17
   8   6   3  112.86   17.29
  10   6  -3   45.11   11.11
  10   6  -3   49.07    9.46
 -10   6   3   35.19    9.95
  10  -6   3   47.94   13.60
  10   6   3   58.27   15.32
 -10  -6   3   71.87   15.05
 -10   6  -3   21.44    9.21
 -12   6   3   35.87   11.09
  12  -6   3   22.96   12.70
  12   6  -3   -0.94    3.54
  12   6  -3   -0.82    3.80
 -12   6  -3   11.19    9.07
 -12  -6   3   18.46   10.80
  12   6   3   12.50   10.83
  -1  -7  -3 1638.86   78.31
   1   7   3 1570.29   77.86
   3  -7   3 1649.60   82.73
  -3  -7  -3 1657.49   85.04
  -3   7   3 1705.50   78.36
  -3  -7   3 1576.28   84.18
   3   7   3 1860.94   86.14
  -5   7   3  602.37   31.83
  -5  -7  -3  568.38   38.33
   5   7  -3  628.50   35.55
   5   7  -3  587.39   31.17
   5  -7   3  547.14   36.97
   5  -7   3  563.06   35.64
   5   7   3  583.47   38.78
  -5  -7   3  584.17   36.43
   5   7   3  597.52   34.58
  -5  -7   3  510.67   38.55
  -5   7  -3  574.86   35.76
   7   7  -3  527.48   30.45
  -7  -7  -3  502.88   38.57
  -7   7   3  516.31   31.78
   7  -7   3  572.47   38.08
   7  -7   3  536.11   35.75
  -7   7  -3  522.19   35.31
   7   7   3  426.52   36.74
   7   7   3  566.54   35.06
  -7  -7   3  516.35   35.66
  -9  -7  -3  131.22   22.91
   9   7  -3  117.76   19.09
   9  -7   3  143.42   22.46
   9   7  -3  158.63   14.40
  -9   7   3  124.21   17.29
   9   7   3  133.80   23.12
  -9  -7   3  183.84   24.75
  -9   7  -3  111.40   18.16
 -11   7   3   93.31   16.20
  11  -7   3   82.64   18.18
 -11   7  -3   81.34   16.60
 -11  -7   3  126.15   22.40
  11   7   3  106.49   21.97
   0  -8   3  214.33   16.57
   0   8   3  230.66   15.75
   0   8  -3  241.05   16.55
   0  -8  -3  200.53   15.39
  -2  -8  -3  127.67   13.26
  -2   8   3  135.33   11.28
   2  -8   3  148.94   13.36
   2   8  -3  135.53   12.31
  -2   8  -3  132.21   12.67
   2  -8  -3  144.25    9.30
   2   8   3  130.84   13.17
  -2  -8   3  134.54   16.68
   4  -8   3  338.45   24.46
   4   8  -3  327.47   22.09
  -4   8   3  287.09   18.25
   4  -8   3  294.20   21.90
  -4  -8  -3  290.61   23.65
  -4  -8   3  272.26   24.02
   4   8   3  271.80   23.14
  -4  -8   3  315.52   23.20
  -4   8  -3  274.24   21.52
   6   8  -3  379.03   27.29
  -6  -8  -3  341.03   29.61
   6  -8   3  344.83   26.75
  -6   8   3  396.73   24.19
   6  -8   3  367.58   28.61
   6   8  -3  363.47   22.70
  -6   8  -3  339.16   26.71
  -6  -8   3  423.96   29.10
   6   8   3  355.13   29.71
   6   8   3  355.77   25.78
  -8  -8  -3  123.31   20.85
  -8   8   3  120.10   16.27
   8   8  -3  117.22   11.88
   8  -8   3   97.88   18.35
   8   8  -3   97.09   17.11
   8  -8   3   82.02   15.73
  -8   8  -3  143.87   21.20
  -8  -8   3   86.64   16.17
   8   8   3  116.07   17.73
   8   8   3  100.64   18.58
  10   8  -3   53.45   10.86
  10  -8   3   72.16   17.29
  10   8  -3   68.35   15.23
 -10   8   3   71.29   14.01
  10   8   3   55.48   15.68
 -10  -8   3   30.76   12.60
 -10   8  -3   54.81   13.87
 -12   8   3   23.22    9.16
  12   8  -3   -1.30    5.17
  12   8  -3   -0.47    4.42
  12  -8   3   10.71    9.06
  12   8   3    8.41   14.11
 -12   8  -3   18.52   10.50
  12   8   3   19.14   13.65
  -1   9   3  829.44   40.86
  -1   9   3  743.62   42.36
   1   9  -3  834.65   43.27
  -1  -9  -3  790.49   43.79
   1  -9   3  788.86   43.82
  -1  -9   3  791.33   44.38
   1  -9  -3  776.60   40.61
   1   9   3  841.31   43.80
  -1   9  -3  776.85   43.09
   3  -9   3  438.98   28.96
  -3   9   3  461.86   26.21
  -3  -9  -3  460.51   31.09
   3   9  -3  446.53   28.36
  -3  -9   3  382.80   29.93
   3   9   3  466.35   30.78
   3  -9  -3  465.44   22.12
  -3   9  -3  464.71   29.27
  -5  -9  -3  309.02   26.32
   5   9  -3  405.74   26.27
   5  -9   3  381.31   26.95
   5  -9   3  307.41   23.96
  -5   9   3  318.66   20.97
  -5  -9   3  252.29   25.74
   5   9   3  275.64   25.33
  -5   9  -3  343.76   25.18
  -5  -9   3  323.66   25.35
   7  -9   3  419.43   32.51
  -7  -9  -3  412.56   33.94
  -7   9   3  427.48   27.89
   7  -9   3  464.73   32.38
   7   9  -3  422.98   31.51
  -7  -9   3  377.86   31.58
  -7   9  -3  387.11   30.53
   7   9   3  436.89   34.81
   7   9   3  424.49   29.77
   9   9  -3   66.62   14.42
  -9   9   3   86.64   13.97
   9  -9   3   94.94   18.05
   9   9  -3   90.56   14.06
  -9  -9   3   98.99   18.49
  -9   9  -3   67.75   14.90
   9   9   3   97.70   20.25
 -11   9   3   87.00   16.45
  11  -9   3   57.53   15.51
  11   9  -3   77.50   16.71
  11   9   3   92.16   20.61
 -11   9  -3   81.37   16.92
  11   9   3   51.52   19.43
   0  10  -3  992.29   48.70
   0 -10   3  865.98   48.46
   0  10   3  791.84   48.03
   0 -10  -3  900.92   46.75
   0  10   3  861.52   46.10
   2  10  -3  407.65   26.15
  -2 -10  -3  370.01   26.74
  -2  10   3  418.29   25.23
   2 -10   3  363.07   25.77
   2 -10  -3  352.88   21.46
  -2  10  -3  416.82   26.71
   2  10   3  399.52   26.89
  -2 -10   3  391.93   27.80
   4  10  -3  195.45   17.24
  -4 -10  -3  166.73   21.64
   4 -10   3  160.37   15.69
  -4  10   3  146.06   12.81
  -4 -10   3  158.51   22.94
  -4  10  -3  172.51   16.43
   4 -10  -3  149.50    8.18
  -4 -10   3  181.28   21.51
   4 -10  -3  157.69    8.90
   4  10   3  140.71   19.65
  -6 -10  -3  204.72   21.00
   6  10  -3  200.17   19.38
   6 -10   3  190.29   18.39
  -6  10   3  164.42   15.25
   6 -10   3  194.07   19.93
   6  10  -3  190.36   15.02
   6  10   3  209.04   27.17
   6  10   3  180.92   16.71
  -6  10  -3  176.63   18.59
  -6 -10   3  215.58   20.64
   8 -10   3   62.03   14.41
   8  10  -3   84.85   13.02
   8  10  -3   68.12   14.50
  -8  10   3   50.68   10.83
  -8 -10  -3   76.28   17.13
   8 -10   3   54.44   13.52
   8  10   3   52.82   14.89
  -8 -10   3   63.98   14.82
  -8  10  -3   83.62   16.49
  10  10  -3   62.86   13.86
 -10  10   3   60.45   12.93
  10  10  -3   50.31   11.38
  10 -10   3   33.50   11.75
 -10 -10   3   26.01   11.56
  10  10   3   50.85   16.05
  10  10   3   12.96   13.22
 -10  10  -3   56.84   13.68
  12  10  -3   19.22    8.96
  12 -10   3    9.84    9.49
 -12  10   3   29.94   11.10
  12  10  -3    0.67    5.19
  12  10   3   20.95   16.79
  12  10   3   63.39   18.26
 -12  10  -3    9.66    9.17
   1  11  -3  963.05   46.57
  -1 -11  -3  815.05   45.07
   1 -11   3  669.65   44.03
  -1  11   3  686.38   43.74
   1  11   3  814.19   44.72
   1 -11  -3  824.44   42.26
   1  11   3  780.94   47.32
  -1 -11   3  752.78   45.88
  -1  11  -3  880.83   45.69
   3  11  -3  500.62   32.55
  -3 -11  -3  495.00   33.85
   3 -11   3  519.17   32.91
  -3  11   3  549.22   30.66
   3 -11  -3  493.55   26.07
  -3 -11   3  430.15   33.88
  -3  11  -3  515.98   32.72
   3  11   3  489.77   33.42
   5 -11   3  265.93   23.31
   5 -11   3  262.66   22.17
  -5  11   3  286.74   19.74
  -5 -11  -3  239.05   23.51
   5  11  -3  252.65   22.73
   5  11   3  260.38   24.34
  -5 -11   3  283.55   23.98
  -5 -11   3  211.88   29.66
  -5  11  -3  261.71   22.50
   7 -11   3  289.89   24.62
   7  11  -3  293.34   25.88
  -7 -11  -3  280.98   26.76
  -7  11   3  272.76   21.45
   7 -11   3  220.26   28.10
   7  11   3  252.12   31.49
  -7 -11   3  280.06   25.79
  -7  11  -3  248.54   23.84
   9 -11   3   53.94   14.15
  -9  11   3   79.37   14.82
   9  11  -3   82.65   17.80
   9 -11   3   87.61   20.12
   9  11  -3   72.49   12.34
   9  11   3   69.62   21.50
  -9  11  -3   75.71   15.47
   9  11   3   80.07   18.63
  -9 -11   3   69.17   16.00
  11 -11   3  106.76   20.96
  11  11  -3   47.52   14.31
 -11  11   3   58.44   13.60
  11  11  -3   47.52   12.38
  11  11   3   66.72   21.89
  11  11   3   61.26   18.23
 -11  11  -3   73.22   16.89
   0  12  -3  536.03   33.16
   0 -12  -3  530.01   31.78
   0 -12   3  492.02   33.57
   0  12   3  508.55   31.52
   0  12   3  518.69   34.40
   2  12  -3  226.72   19.35
  -2  12   3  249.26   19.03
   2 -12   3  204.65   18.70
  -2 -12  -3  194.88   18.54
  -2 -12   3  207.19   20.61
   2  12   3  180.94   17.84
   2 -12  -3  240.29   15.76
  -2  12  -3  205.48   18.51
   2  12   3  213.09   26.79
  -4  12   3  111.66   14.48
   4  12  -3  131.78   18.51
  -4 -12  -3   97.00   16.83
   4 -12   3   86.25   14.66
   4  12   3   65.24   16.76
  -4 -12   3  103.67   17.06
  -4  12  -3   99.74   15.73
   4  12   3   99.23   17.18
  -4 -12   3  102.87   19.09
   4 -12  -3   88.96    7.16
   6 -12   3  189.13   24.03
  -6  12   3  151.90   15.15
  -6 -12  -3  179.74   24.74
   6 -12   3  167.01   17.67
   6  12  -3  169.27   23.18
   6  12   3  171.56   28.88
  -6 -12   3  153.43   22.16
  -6  12  -3  153.54   21.47
   6  12   3  175.78   25.44
   8 -12   3   36.89   12.70
  -8 -12  -3   45.62   15.06
   8  12  -3   62.79   11.42
   8  12  -3   46.17   12.91
  -8  12   3   62.79   11.56
   8 -12   3   53.71   13.80
   8  12   3   29.16   12.10
   8  12   3   39.81   15.83
  -8 -12   3   37.44   11.68
   8  12   3   37.99   10.53
  -8  12  -3   40.65   11.70
 -10  12   3   40.81   11.30
  10 -12   3   15.29    9.70
  10  12  -3   13.50    7.78
  10  12  -3    8.72    9.46
 -10  12  -3   26.82   11.22
  10  12   3   14.57   13.88
  10  12   3   41.21   13.99
 -12  12   3   17.34   10.54
  12  12  -3   18.71   10.25
  12 -12   3   22.74   12.45
 -12  12  -3   14.33   10.44
  12  12   3    4.85   15.24
  12  12   3   31.86   13.27
   1  13  -3  428.70   28.89
  -1  13   3  423.61   28.97
  -1 -13  -3  417.96   28.21
   1 -13   3  333.77   27.35
  -1  13  -3  391.95   28.03
   1  13   3  416.97   28.12
   1 -13  -3  383.66   25.37
   1  13   3  411.73   31.10
  -1 -13   3  401.00   29.85
   3 -13   3  383.17   27.11
  -3  13   3  385.04   25.17
   3  13  -3  357.81   26.89
  -3 -13  -3  279.97   25.19
  -3 -13   3  303.01   27.90
  -3 -13   3  324.75   26.74
   3  13   3  269.74   24.91
   3  13   3  329.13   29.49
  -3  13  -3  338.94   25.87
   3 -13  -3  363.43   20.67
   5 -13   3  232.31   21.77
  -5  13   3  257.70   19.93
  -5 -13  -3  307.19   26.48
   5  13  -3  257.46   23.85
   5 -13  -3  238.49   13.49
  -5  13  -3  213.18   21.26
  -5 -13   3  223.11   30.79
   5  13   3  219.08   31.33
  -5 -13   3  237.11   22.77
   5  13   3  259.10   24.89
   5 -13  -3  245.22   13.56
   7 -13   3  225.73   22.90
   7  13  -3  278.43   26.47
   7  13  -3  226.89   19.07
  -7  13   3  286.74   22.25
   7 -13   3  256.36   25.20
   7  13   3  280.39   38.98
  -7 -13   3  241.35   25.17
   7  13   3  270.91   33.57
  -7  13  -3  265.70   25.19
   9  13  -3   38.93   12.74
   9 -13   3   71.04   16.88
  -9  13   3   81.50   15.17
   9  13  -3   83.17   14.47
  -9 -13   3   60.34   16.52
   9  13   3   66.99   20.02
   9  13   3   71.33   18.13
  -9  13  -3   52.79   14.01
 -11  13   3   35.42   10.67
  11  13  -3   51.11   15.39
  11 -13   3   50.18   15.18
  11  13   3   34.44   13.50
  11  13   3   59.48   22.35
 -11  13  -3   44.59   13.94
   0  14   3  179.24   23.18
   0 -14   3  171.09   22.49
   0  14  -3  169.18   16.92
   0 -14  -3  130.16   14.06
   2 -14   3   63.96   13.24
   2  14  -3   67.49   13.25
  -2  14   3   70.70   12.84
  -2 -14  -3   67.77   13.27
   2  14   3   61.03   15.15
  -2 -14   3   65.68   15.03
  -2  14  -3   57.10   11.96
   2  14   3   76.29   13.54
   2 -14  -3   71.54   10.39
  -4 -14  -3   90.44   16.97
   4 -14   3  103.10   17.00
   4  14  -3  110.41   17.63
  -4  14   3  107.53   15.15
   4  14   3   69.19   14.30
   4  14   3   85.07   19.80
   4 -14  -3   79.94    8.18
  -4  14  -3  118.88   17.49
  -4 -14   3  131.02   20.09
  -4 -14   3   98.84   19.55
  -6  14   3  184.45   17.54
   6 -14   3  204.53   20.81
   6  14  -3  191.21   24.88
   6 -14   3  199.31   25.15
   6 -14  -3  168.72    9.73
  -6 -14   3  192.48   26.44
  -6 -14   3  175.80   29.24
   6  14   3  220.89   33.70
   6  14   3  160.71   24.79
  -6  14  -3  196.58   20.47
   6 -14  -3  184.55    9.97
   8  14  -3   53.88   10.42
   8 -14   3   65.13   15.97
   8  14  -3   60.69   15.28
  -8  14   3   51.51   11.81
   8  14   3   32.54   11.73
   8  14   3   21.39   13.36
  -8  14  -3   67.14   14.96
  -8 -14   3   67.21   16.38
  10 -14   3   16.79   10.29
  10  14  -3   21.71    9.00
  10  14  -3   46.31   13.93
 -10  14   3   25.91    9.49
  10  14   3   15.75   15.01
 -10  14  -3   29.54   10.34
  10  14   3   15.11   11.56
  -1 -15  -3  455.37   31.66
  -1  15   3  494.04   33.65
   1 -15   3  411.26   32.13
   1  15  -3  512.12   33.56
   1 -15  -3  415.84   28.79
   1  15   3  460.91   31.75
  -1 -15   3  388.77   32.69
   1  15   3  454.76   34.66
  -1  15  -3  473.89   32.54
   3 -15   3  287.66   25.20
   3  15  -3  300.86   25.93
  -3 -15  -3  281.66   25.39
  -3  15   3  335.20   24.87
  -3 -15   3  317.00   26.59
  -3 -15   3  319.03   29.20
  -3  15  -3  323.97   26.36
   3 -15  -3  299.37   20.27
   3  15   3  302.08   29.18
   3  15   3  296.50   26.20
   5 -15   3  189.36   20.23
  -5 -15  -3  236.89   29.06
  -5  15   3  198.25   18.65
   5  15  -3  225.28   22.63
  -5 -15   3  242.75   34.91
  -5  15  -3  211.10   21.92
   5  15   3  258.73   30.67
   5  15   3  178.66   30.90
   5 -15  -3  201.81   13.54
  -5 -15   3  211.19   26.76
  -7  15   3  213.50   19.84
   7  15  -3  181.55   26.92
   7  15  -3  174.91   16.63
   7 -15   3  229.55   31.38
   7 -15   3  191.68   25.79
  -7 -15   3  168.39   25.98
  -7  15  -3  209.35   27.09
   7  15   3  180.17   26.53
   7  15   3  168.10   30.71
   9  15  -3   57.83   14.77
   9  15  -3   65.89   13.83
   9 -15   3   65.39   14.61
  -9  15   3   52.75   13.37
   9  15   3   72.36   21.17
  -9  15  -3   62.17   16.06
   9  15   3   53.38   16.24
  11 -15   3   37.97   13.11
 -11  15   3   62.88   14.34
  11  15  -3   37.67   13.22
  11  15   3   14.45   12.30
  11  15   3   40.01   18.44
 -11  15  -3   88.81   19.10
   0  16  -3  253.10   23.71
   0 -16  -3  321.70   24.22
   0  16   3  279.86   25.68
   0 -16   3  294.14   25.83
   2  16  -3  329.04   26.21
   2 -16   3  237.60   23.48
  -2  16   3  274.50   23.75
  -2 -16  -3  204.58   21.89
  -2  16  -3  272.07   23.99
  -2 -16   3  238.27   25.20
   2  16   3  269.28   33.53
   2  16   3  286.11   24.33
   2 -16  -3  254.98   19.77
   4 -16   3  140.53   21.18
   4  16  -3  162.17   23.33
  -4 -16  -3  171.90   23.63
  -4  16   3  147.18   19.95
  -4 -16   3  161.63   22.68
   4  16   3  133.24   25.19
  -4  16  -3  150.52   21.84
  -4 -16   3  139.70   25.08
   4  16   3  154.96   22.37
   4 -16  -3  151.50   12.78
  -6  16   3  124.34   17.86
   6 -16   3  124.89   20.32
   6 -16   3  112.15   19.55
   6  16  -3  171.73   25.78
  -6 -16   3  144.08   22.77
   6 -16  -3  122.22    9.23
  -6 -16   3  189.76   31.41
   6 -16  -3  134.90    9.53
   6  16   3  137.17   26.81
  -6  16  -3  135.58   21.40
   6  16   3  114.32   21.86
   8 -16   3   40.59   12.38
  -8  16   3   35.91   10.54
   8  16  -3   55.80   11.69
   8  16  -3   63.53   15.99
   8  16   3   56.88   18.64
  -8  16  -3   55.75   14.30
   8  16   3   59.35   15.97
  10  16  -3   20.99    9.53
  10  16  -3   15.36   11.69
 -10  16   3   27.59    9.62
  10 -16   3   35.79   12.69
  10  16   3    9.94   13.48
  10  16   3   49.92   15.91
 -10  16  -3   33.46   13.84
   1  17  -3  478.68   33.53
  -1  17   3  445.35   33.47
   1 -17   3  345.27   31.48
  -1 -17  -3  447.59   31.59
   1  17   3  373.86   33.08
   1 -17  -3  391.26   28.58
  -1 -17   3  401.04   33.65
  -1  17  -3  441.81   32.29
   3  17  -3  498.99   36.79
   3 -17   3  437.87   34.97
  -3 -17  -3  513.52   37.40
  -3  17   3  505.40   35.06
  -3  17  -3  467.66   35.51
  -3 -17   3  497.84   37.28
   3  17   3  519.29   41.13
   3 -17  -3  441.18   29.41
  -3 -17   3  484.84   39.29
   3  17   3  538.79   38.07
  -5 -17  -3  190.92   26.81
   5 -17   3  213.35   22.26
  -5  17   3  205.92   20.31
   5  17  -3  242.61   24.74
   5 -17  -3  195.75   14.53
   5  17   3  188.94   27.26
  -5 -17   3  185.84   30.78
  -5 -17   3  212.92   27.74
   5  17   3  245.80   36.42
  -5  17  -3  183.22   26.00
   7 -17   3  140.66   22.39
  -7  17   3  111.21   17.91
   7  17  -3  122.47   22.16
   7  17   3  123.14   23.42
  -7  17  -3   93.44   18.38
   7 -17  -3  136.06    7.72
   7 -17  -3  114.82    7.36
   7  17   3  111.72   25.95
  -9  17   3   85.45   16.60
   9  17  -3   92.33   19.61
   9 -17   3   51.44   14.69
   9  17   3   99.17   21.97
   9  17   3   67.40   21.86
  -9  17  -3   70.49   16.80
 -11  17   3   33.55   12.56
  11 -17   3   30.32   12.07
  11  17  -3   44.77   15.64
  11  17   3   45.14   21.82
  11  17   3   15.64   12.54
 -11  17  -3   21.60   12.40
   0 -18  -3   96.57   16.23
   0  18   3   92.16   18.49
   0 -18   3  110.95   20.22
   0  18  -3  109.25   18.64
  -2  18   3  197.97   25.88
  -2 -18  -3  182.14   23.88
   2  18  -3  221.89   27.40
   2 -18   3  181.81   25.74
   2  18   3  175.48   28.02
  -2 -18   3  217.16   30.68
  -2  18  -3  210.94   26.85
   2 -18  -3  165.27   16.38
   4  18  -3  123.80   21.38
   4 -18   3  107.02   19.44
  -4  18   3  121.86   18.16
  -4 -18  -3  105.93   19.85
  -4  18  -3   98.83   19.08
   4  18   3  141.70   22.92
   4  18   3  105.93   21.92
  -4 -18   3  126.80   20.14
  -4 -18   3  135.98   25.45
   4 -18  -3   91.47   12.47
   6  18  -3   51.85   14.33
  -6  18   3   68.11   13.65
   6  18   3   42.93   13.60
   6 -18  -3   50.31    7.52
   6  18   3   71.76   18.36
  -6 -18   3   47.91   13.64
  -6  18  -3   62.29   15.23
  -8  18   3   34.23   10.60
   8  18  -3   48.91   14.42
   8 -18   3   35.74   11.64
  -8  18  -3   27.26   12.45
   8  18   3   36.89   14.02
   8  18   3    9.99   12.49
  10  18  -3   24.32   11.89
  10 -18   3   33.13   13.40
 -10  18   3   19.14   10.71
  10  18   3   14.90   15.48
 -10  18  -3   19.38   11.44
  10  18   3   26.06   15.32
  -1 -19  -3  156.22   21.75
   1  19  -3  159.11   22.88
  -1  19   3  116.61   20.51
   1 -19   3  131.62   22.67
  -1  19  -3  109.96   20.24
   1 -19  -3  166.46   20.34
   1  19   3  179.66   27.28
   3  19  -3  237.15   24.12
  -3  19   3  236.47   22.69
   3 -19   3  240.52   30.31
  -3 -19  -3  185.93   26.46
   3 -19  -3  181.00   17.28
  -3  19  -3  220.52   28.72
   3  19   3  194.41   30.37
  -5  19   3  112.25   17.94
   5  19  -3  140.44   23.16
   5  19   3  101.18   23.54
  -5 -19   3   77.46   17.26
  -5  19  -3  126.44   21.15
   5  19   3   94.88   20.15
  -5 -19   3   87.69   22.29
   5 -19  -3  112.35   13.66
   7  19  -3  113.22   20.74
  -7  19   3   66.50   14.98
   7 -19   3   73.86   16.85
   7  19   3   76.99   21.91
  -7  19  -3  124.37   21.91
   7  19   3   63.22   17.23
   9  19  -3   32.35   13.51
   9 -19   3   36.10   12.86
  -9  19   3   34.51   11.34
   9  19   3   57.10   17.44
  -9  19  -3   32.41   12.03
   9  19   3   20.79   15.62
   0 -20  -3   21.78    8.07
   0 -20   3   23.58   10.11
   0  20   3   26.90   11.20
   0  20  -3   19.99   10.39
  -2 -20  -3   59.68   14.17
   2  20  -3   46.43   13.09
   2 -20   3   75.13   17.43
  -2  20   3   59.72   14.73
   2 -20  -3   67.87   12.54
  -2  20  -3   52.96   14.51
   2  20   3   55.53   16.97
  -4  20   3   59.43   13.93
   4  20  -3   44.85   13.99
   4 -20  -3   49.49   10.04
   4  20   3   26.23   14.16
  -4  20  -3   67.54   15.15
   6  20  -3   45.58   14.93
  -6  20   3   13.92    8.94
  -6  20  -3   38.24   13.13
   6  20   3   27.22   15.16
   6 -20  -3   30.70    6.50
   6  20   3   17.94   11.20
   6 -20  -3   24.21    5.83
   8  20  -3   13.93   11.14
  -8  20   3   37.32   11.56
   8 -20   3   27.50   10.52
   8  20   3   25.58   16.95
   8  20   3   17.92   12.93
  -8  20  -3    1.66    7.16
 -10  20   3   15.39   10.27
  10  20  -3   -0.06    9.52
  10 -20   3   -4.30    6.28
  10  20   3   29.99   19.71
 -10  20  -3   -1.57    7.83
  10  20   3    4.61    9.80
   1  21  -3  104.55   20.23
  -1 -21  -3  106.18   18.70
   1 -21   3   95.44   23.05
  -1  21   3  103.82   20.74
   1 -21  -3  100.10   16.27
  -1  21  -3   76.09   16.74
   1  21   3   57.20   16.29
   3  21  -3   94.80   19.67
  -3 -21  -3  115.28   20.74
  -3  21   3  153.82   23.50
  -3  21  -3  119.97   21.36
   3 -21  -3  131.73   17.06
   3  21   3  116.98   23.70
   5  21  -3   66.49   17.80
  -5  21   3   65.16   14.68
   5 -21  -3   69.02   11.29
   5  21   3   47.55   18.20
  -5  21  -3   68.22   16.62
   7 -21   3   40.43   12.98
   7  21  -3   55.05   16.33
  -7  21   3   60.20   14.77
  -7  21  -3   48.43   14.13
   7  21   3   60.96   17.65
   7  21   3   36.57   17.39
   9  21  -3   25.24   14.19
   9 -21   3   11.77   10.11
  -9  21   3    1.11    7.81
   9  21   3    3.88    9.27
   9  21   3   70.41   23.25
  -9  21  -3   27.11   14.60
   0  22  -3   52.36   14.46
   0  22   3   46.47   14.59
   0 -22  -3   43.53   11.81
   2  22  -3   76.74   17.76
  -2  22   3  140.64   23.13
  -2 -22  -3   95.78   18.83
   2  22   3  121.24   25.05
  -2  22  -3   64.45   16.42
   2 -22  -3   70.78   14.20
  -4  22   3   70.72   15.82
   4  22  -3   96.39   21.06
   4 -22  -3   83.13   13.49
   4  22   3   68.89   20.33
  -4  22  -3   26.86   12.65
  -6  22   3   53.11   13.82
   6  22  -3   47.71   15.10
  -6  22  -3   42.21   13.16
   6  22   3   17.20   13.23
  -8  22   3   26.42    9.88
   8  22  -3   17.03   12.48
   8 -22   3   17.56   10.66
   8  22   3   12.97   14.73
  -8  22  -3   14.70    9.91
   1  23  -3  131.35   24.30
  -1  23   3  124.93   23.49
  -1 -23  -3  132.73   21.60
   1  23   3  138.86   25.65
   1 -23  -3  109.94   19.20
  -1  23  -3   98.89   20.64
   3  23  -3  140.99   25.36
  -3  23   3  117.77   21.85
  -3 -23  -3  126.13   25.44
   3  23   3  139.35   28.66
   3 -23  -3  128.62   18.44
  -3  23  -3  132.11   23.98
   5  23  -3   74.11   17.94
  -5  23   3   90.75   19.20
   5  23   3   76.88   20.60
   5 -23  -3   43.64   10.19
  -5  23  -3   59.66   15.21
  -7  23   3   59.95   14.70
   7 -23   3   36.12   12.82
   7  23  -3   19.11   13.88
  -7  23  -3   27.91   13.25
   7  23   3   62.74   21.49
   9  23  -3   33.85   15.40
   9 -23   3   22.30   11.97
  -9  23   3   16.72   11.00
  -9  23  -3   23.99   13.81
   9  23   3   26.92   18.54
   0 -24  -3   59.40   14.79
   0  24  -3   29.35   12.26
   0  24   3   51.73   15.40
  -2  24   3   89.77   19.78
   2  24  -3   78.59   18.71
   2  24   3   73.72   18.46
  -2  24  -3   63.06   15.83
   2 -24  -3   57.75   13.35
   4  24  -3   61.69   16.91
  -4  24   3   52.52   14.59
   4 -24  -3   61.33   12.77
   4  24   3   41.97   17.57
  -4  24  -3   57.04   16.90
  -6  24   3   39.54   13.14
   6  24  -3   49.13   16.22
   6 -24  -3    2.64    3.50
   6  24   3   12.75   13.06
  -6  24  -3   12.12   10.01
   8 -24   3   17.34    9.53
  -8  24   3   12.00   10.00
   8  24  -3    7.56   11.92
  -8  24  -3   16.95   13.03
   8  24   3   14.40   14.61
   1  25  -3   63.20   17.10
  -1  25   3   98.71   21.70
   1 -25  -3   61.41   15.20
  -1  25  -3   45.27   15.05
   1  25   3   66.36   18.62
   3  25  -3   79.04   19.24
  -3  25   3   96.99   19.62
  -3  25  -3   98.87   21.84
   3  25   3   82.78   22.25
   3 -25  -3   75.90   14.83
  -5  25   3   19.36   11.60
   5  25  -3   48.41   14.92
  -5  25  -3   39.77   13.12
   5 -25  -3    2.65    3.83
   5  25   3   26.30   15.56
  -7  25   3   11.25    9.71
   7  25  -3   11.08   13.30
   7 -25   3   22.08   12.00
   7  25   3   13.42   13.87
  -7  25  -3   42.07   15.45
   7 -25  -3   -0.61    2.71
   0  26   3   16.53   12.56
   0  26  -3   10.24    9.61
  -2  26   3   20.54   12.51
   2  26  -3   33.89   14.63
  -2  26  -3   15.31   11.98
   2 -26  -3   28.75   10.63
   2  26   3   45.53   16.06
  -4  26   3   15.61   11.40
   4  26  -3    5.95    9.81
   4 -26  -3    9.59    7.15
  -4  26  -3   43.11   14.65
   4  26   3   14.41   13.82
   6  26  -3    5.50   10.74
  -6  26   3   14.14   11.39
   6 -26  -3    0.08    3.47
  -6  26  -3   41.58   15.22
   6  26   3   44.76   18.50
  -1  27   3   65.56   18.42
   1  27  -3   16.39   12.40
  -1  27  -3   51.44   15.83
   1  27   3   48.72   16.49
  -3  27   3   29.41   15.03
   3  27  -3   17.60   12.73
  -3  27  -3   59.25   16.77
   3 -27  -3   43.32   12.53
   3  27   3   28.44   16.22
  -5  27   3   37.10   13.34
   5  27  -3   40.29   14.81
  -5  27  -3   40.30   14.92
   5  27   3   23.29   15.75
   0  28   3   47.80   16.79
   0  28  -3   17.91   11.66
  -2  28   3   17.51   11.30
   2  28  -3   44.06   15.06
   2  28   3    9.28   12.79
  -2  28  -3   25.88   13.18
  -4  28   3   14.56   13.06
   4  28  -3    6.08   11.36
  -4  28  -3   16.20   12.36
   4  28   3   26.68   15.87
   4 -28  -3   -0.87    4.32
   6  28  -3    6.20   11.10
  -6  28   3    1.37    8.09
  -6  28  -3    6.27   10.17
   6  28   3   29.19   14.78
  -1  29   3   51.36   17.21
   1  29  -3   44.74   16.37
   1  29   3   31.12   15.29
  -1  29  -3   10.66   11.19
  -3  29   3   27.34   15.24
   3  29  -3   19.33   13.61
   3  29   3   75.18   22.58
  -3  29  -3   12.99   11.61
  -5  29   3   43.18   16.21
   5  29  -3   10.02   11.82
   5  29   3   18.03   14.58
  -5  29  -3    0.63    9.34
   5 -29  -3   -1.21    4.98
   0  30   3    8.11   12.14
   0  30  -3   23.78   13.50
   2  30  -3    3.48   10.49
  -2  30   3    7.61   11.23
  -2  30  -3   11.15   10.50
   2  30   3   18.14   14.68
  -4  30   3    9.42   11.15
   4  30  -3   13.87   12.34
  -4  30  -3    3.90    9.41
   4  30   3   10.62   12.39
  -1  31   3   15.89   13.86
   1  31  -3   16.80   10.65
  -1  31  -3   17.31   13.46
   1  31   3   21.51   16.08
   0   0   4 1097.48   55.10
   2   0   4  832.63   42.12
  -2   0   4  853.34   36.94
   2   0   4  786.21   45.59
   4   0   4  609.74   37.45
  -4   0   4  660.76   34.89
  -4   0  -4  717.13   42.16
   4   0   4  702.46   42.00
  -4   0  -4  753.87   37.73
  -4   0   4  674.02   35.82
  -4   0   4  668.57   32.76
  -6   0   4  616.70   33.73
  -6   0  -4  627.95   41.46
  -6   0  -4  624.92   37.24
  -6   0   4  644.10   33.23
   6   0   4  596.82   40.97
   6   0   4  588.13   37.76
   8   0   4  213.42   20.99
  -8   0  -4  243.23   30.48
   8   0   4  284.28   26.44
  -8   0   4  202.05   16.91
 -10   0   4  159.43   15.77
  10   0   4  183.89   27.45
  12   0   4   58.49   17.07
 -12   0   4   41.50    9.68
  -1   1   4  883.70   44.02
   1  -1   4  871.68   46.77
   1  -1   4  862.91   42.98
   1   1   4  937.54   42.50
   1   1   4  798.78   45.74
  -1  -1   4  874.00   40.68
  -1   1  -4  879.34   41.52
  -3   1   4  745.99   33.74
  -3   1   4  717.66   33.57
   3  -1   4  753.36   40.31
  -3  -1  -4  746.02   43.11
   3  -1   4  849.99   45.12
   3   1   4  720.69   39.52
   3   1   4  814.39   44.45
  -3  -1   4  739.23   36.45
  -3   1  -4  754.48   39.05
  -5  -1  -4  364.30   27.61
  -5   1   4  374.07   20.36
   5  -1   4  352.67   24.67
  -5   1   4  332.25   19.49
   5  -1   4  364.93   27.72
  -5   1  -4  343.43   23.45
   5   1   4  375.24   27.74
  -5  -1   4  333.88   21.53
   5   1   4  383.22   25.02
  -5   1  -4  319.78   26.10
  -7   1   4  172.29   13.68
  -7   1   4  170.65   12.85
   7  -1   4  158.01   16.27
  -7  -1  -4  174.21   23.59
   7  -1   4  116.91   20.03
  -7   1  -4  147.67   15.71
   7   1   4  142.26   22.57
  -7   1  -4  190.18   25.15
   7   1   4  166.54   16.85
  -7  -1   4  141.11   13.55
  -9   1   4  184.82   16.89
  -9  -1  -4  202.44   27.71
  -9   1   4  162.82   14.62
   9  -1   4  178.11   26.12
  -9   1  -4  193.99   27.20
   9   1   4  169.28   25.91
  -9  -1   4  183.54   16.93
  -9   1  -4  162.33   21.76
  11  -1   4    7.71    9.49
 -11   1   4   31.95    8.56
 -11  -1   4   45.32   10.55
  11   1   4   45.50   14.97
   0  -2  -4 2565.34  142.04
   0   2  -4 2589.51  137.81
   0   2   4 3018.86  261.71
   0  -2   4 2305.43  137.47
   0   2  -4 3228.30  404.38
   0  -2   4 2410.06  375.49
  -2  -2  -4 1346.95   70.10
  -2   2   4 1316.40   64.70
   2  -2   4 1441.45   71.07
   2  -2   4 1457.71   67.63
   2   2   4 1398.55   70.64
  -4   2   4  465.34   26.12
  -4   2   4  479.74   24.13
  -4   2   4  505.54   24.81
  -4  -2  -4  495.05   32.94
   4  -2   4  525.03   30.63
   4  -2   4  490.53   32.99
   4   2   4  507.52   33.13
  -4   2  -4  549.47   29.83
  -4  -2   4  522.12   28.79
   4   2   4  444.56   28.79
  -4  -2   4  457.01   28.60
   6  -2   4  392.06   30.28
   6  -2   4  342.17   26.27
  -6  -2  -4  402.72   30.25
  -6   2   4  361.73   21.84
  -6   2   4  359.40   20.40
   6   2   4  384.17   30.07
  -6   2  -4  358.83   28.60
  -6   2  -4  403.89   26.48
  -6  -2   4  356.12   24.15
   6   2   4  386.39   26.86
  -8  -2  -4  181.91   25.74
   8  -2   4  194.81   26.43
  -8   2   4  193.01   14.04
   8  -2   4  188.78   19.16
  -8   2   4  167.50   15.27
  -8  -2   4  179.74   16.53
  -8   2  -4  170.81   18.00
   8   2   4  190.40   23.94
  -8   2  -4  224.17   28.09
   8   2   4  211.95   28.15
 -10   2   4  163.38   16.91
 -10   2   4  183.10   14.84
  10  -2   4  181.26   27.34
  10   2   4  141.65   24.51
 -10  -2   4  184.57   22.93
 -10   2  -4  172.34   23.56
  12  -2   4   18.37   12.42
 -12  -2   4   50.85   12.00
  12   2   4   33.50   12.71
   1  -3   4  210.76   14.71
   1   3  -4  223.36   10.80
  -1  -3  -4  197.50   15.88
  -1   3   4  200.31   13.93
  -1  -3   4  218.50   13.49
   1   3   4  215.20   16.49
  -1   3  -4  252.44   14.16
   3  -3   4  327.56   21.55
   3  -3   4  333.42   24.35
  -3  -3  -4  315.37   23.74
  -3   3   4  314.12   16.50
  -3  -3   4  319.87   19.69
   3   3   4  332.47   20.40
  -3   3  -4  313.49   20.39
   5  -3   4   52.26   11.69
  -5   3   4   63.17    4.61
   5  -3   4   97.87   14.42
  -5  -3  -4   60.46   12.57
  -5   3   4   65.92    6.38
  -5   3  -4   70.47   11.30
  -5  -3   4   50.85   10.77
   5   3   4   77.27   12.30
  -5  -3   4   46.81    9.01
   5   3   4   65.88   12.67
  -7   3   4   28.09    6.50
  -7   3   4   26.87    4.52
  -7  -3  -4   29.80    9.90
   7  -3   4   32.41    9.50
   7  -3   4   28.90    9.96
  -7   3  -4   22.62    8.01
   7   3   4   28.76    8.53
   7   3   4   18.95    8.67
  -7  -3   4   41.13    8.81
  -9   3   4   84.31    8.51
   9  -3   4  133.24   22.28
  -9  -3  -4   94.30   19.27
  -9   3   4   96.06   13.70
  -9  -3   4   93.66   14.97
  -9   3  -4  117.39   19.00
   9   3   4   78.01   17.44
   9   3   4   82.24   15.80
  11  -3   4   14.12   10.39
 -11   3   4   48.00   11.52
  11   3   4   12.73   11.01
 -11   3  -4   10.37    7.78
 -11  -3   4   28.32   10.30
   0   4   4 1303.43   64.88
   0  -4  -4 1368.26   65.14
   2  -4   4 1086.06   56.80
   2  -4   4 1068.42   53.33
  -2   4   4 1035.89   49.23
  -2  -4  -4 1015.54   55.39
   2   4  -4 1057.40   47.28
  -2   4  -4 1066.18   52.21
  -2  -4   4 1064.46   51.37
   2   4   4  978.14   54.83
   4  -4   4  659.44   41.36
   4  -4   4  657.11   38.63
  -4  -4  -4  687.04   41.93
  -4   4   4  670.81   31.93
   4   4   4  680.13   37.46
   4   4   4  725.98   42.54
  -4  -4   4  649.93   37.81
  -4  -4   4  605.33   38.03
  -4   4  -4  714.70   38.41
   6   4  -4  406.09   20.16
   6  -4   4  382.66   30.76
  -6  -4  -4  381.27   30.95
  -6   4   4  363.50   23.24
   6   4  -4  430.03   20.65
   6  -4   4  416.62   29.01
   6   4   4  433.27   32.64
   6   4   4  362.25   27.12
  -6  -4   4  420.24   27.55
  -6   4  -4  462.89   29.20
  -8  -4  -4  134.43   22.13
   8  -4   4  177.96   23.05
   8   4  -4  166.02   11.11
   8   4  -4  159.05   10.48
   8  -4   4  182.56   24.89
  -8   4   4  145.63   14.19
   8   4   4  153.64   24.15
  -8   4  -4  159.46   21.48
  -8  -4   4  169.08   16.64
  10  -4   4  140.62   23.95
 -10   4   4  140.81   18.65
 -10  -4   4  157.12   20.83
 -10   4  -4  156.48   22.59
  10   4   4  119.67   23.64
  12  -4   4   22.06   12.90
 -12  -4   4   31.80   11.75
  12   4   4   42.82   14.74
  -1   5   4  342.94   20.22
   1  -5   4  376.99   22.33
  -1  -5  -4  359.45   23.29
   1   5  -4  366.78   19.46
  -1   5  -4  320.97   20.60
   1   5   4  363.04   23.33
   1  -5  -4  355.06   20.42
  -1  -5   4  361.87   21.36
  -3  -5  -4  204.18   17.69
   3  -5   4  185.49   17.31
   3  -5   4  199.84   15.86
   3   5  -4  185.25   10.96
   3   5  -4  176.57   10.32
   3   5   4  211.10   17.99
  -3   5  -4  171.72   14.42
  -3  -5   4  167.68   14.61
   3   5   4  178.48   13.91
   5   5  -4  167.69   10.12
   5  -5   4  137.79   14.58
   5   5  -4  156.05   10.52
  -5   5   4  150.39   10.97
  -5  -5  -4  197.15   23.93
   5  -5   4  171.70   22.82
  -5  -5   4  134.27   14.17
  -5   5  -4  158.20   15.07
  -5  -5   4  172.56   17.16
   5   5   4  186.03   23.53
   5   5   4  149.90   14.29
   7  -5   4  106.86   16.37
   7  -5   4   99.18   17.74
  -7  -5  -4  107.93   18.85
  -7   5   4   89.62   11.90
   7   5  -4   86.98    7.84
   7   5  -4  102.79    8.98
  -7   5  -4   78.91   14.69
   7   5   4  103.79   19.14
   7   5   4   90.39   15.40
  -7  -5   4   88.92   13.90
  -9   5   4  102.48   14.52
   9   5  -4  106.79    9.98
  -9  -5  -4   82.36   17.74
   9  -5   4  106.16   21.57
   9  -5   4   75.39   17.64
  -9  -5   4  112.58   17.57
  -9   5  -4   71.14   14.82
 -11   5   4   35.18    9.34
  11  -5   4   46.05   15.52
  11   5   4   60.06   16.28
 -11  -5   4   26.05   10.34
 -11   5  -4   35.69   12.05
   0   6   4 1286.76   62.02
   0   6  -4 1257.35   60.51
   0  -6   4 1230.97   61.80
   0  -6  -4 1241.79   61.93
   2  -6   4  808.37   44.26
  -2  -6  -4  830.59   46.52
  -2   6   4  788.41   39.28
   2   6  -4  820.74   40.66
  -2   6  -4  899.15   44.30
   2   6   4  824.26   46.29
  -2  -6   4  834.67   43.82
  -4  -6  -4  524.18   35.65
   4   6  -4  534.94   28.04
   4  -6   4  548.01   35.84
  -4   6   4  575.71   27.01
   4  -6   4  519.08   32.94
   4   6  -4  514.47   26.71
  -4  -6   4  528.55   33.00
  -4  -6   4  523.31   34.02
   4   6   4  542.75   35.85
  -4   6  -4  519.30   32.31
   4   6   4  500.83   30.87
   6  -6   4  361.56   30.47
  -6  -6  -4  447.77   33.24
   6   6  -4  428.81   24.16
   6   6  -4  395.15   22.35
   6  -6   4  417.10   29.93
  -6   6   4  420.73   24.37
   6   6   4  370.63   31.37
   6   6   4  368.65   27.26
  -6  -6   4  453.04   29.56
  -6   6  -4  397.76   28.68
   8  -6   4  143.05   20.30
  -8  -6  -4  128.22   22.55
   8  -6   4  107.78   20.54
  -8   6   4  113.21   14.69
   8   6  -4  148.95   12.64
   8   6  -4  125.04   10.67
   8   6   4  132.29   22.93
  -8   6  -4  136.34   20.37
  -8  -6   4  118.60   17.94
  10  -6   4  126.20   22.80
  10   6  -4  130.22   12.03
 -10   6   4  137.89   18.61
 -10   6  -4  109.67   19.81
 -10  -6   4  138.47   21.50
  10   6   4  104.18   21.36
 -12   6   4   47.53   12.62
  12  -6   4   35.55   15.47
  12   6   4   16.16   12.33
 -12   6  -4   55.92   14.97
 -12  -6   4   43.89   14.83
   1  -7   4  968.20   51.78
  -1  -7  -4 1038.50   53.17
   1   7  -4 1019.44   49.68
  -1   7   4  984.96   49.10
   1   7   4  994.73   52.51
   1  -7  -4  985.81   49.25
  -1  -7   4  999.14   51.60
  -1   7  -4  998.76   50.97
   3  -7   4  285.31   21.77
  -3  -7  -4  300.25   23.79
   3   7  -4  323.58   19.21
  -3   7   4  318.12   17.52
  -3   7  -4  334.60   22.31
  -3  -7   4  313.59   22.73
   3   7   4  285.48   23.38
   5   7  -4  206.48   13.26
   5  -7   4  172.00   22.75
  -5   7   4  190.21   13.40
   5   7  -4  218.51   15.19
  -5  -7  -4  237.51   21.23
   5  -7   4  164.01   16.73
  -5  -7   4  187.29   23.77
  -5  -7   4  198.92   17.75
  -5   7  -4  201.98   18.00
   5   7   4  172.72   22.47
   5   7   4  188.08   16.67
   7   7  -4   87.36    9.01
  -7   7   4  109.11   11.13
   7   7  -4  108.24   13.55
   7  -7   4  100.06   17.71
  -7  -7  -4   85.10   16.90
   7  -7   4  118.92   17.94
  -7  -7   4   94.84   16.06
  -7   7  -4   83.47   14.90
   7   7   4   56.66   13.66
  -9   7   4  110.65   15.42
   9  -7   4   58.49   15.39
   9   7  -4   89.90   11.62
   9   7  -4   87.19   12.22
   9   7   4   93.01   19.74
  -9  -7   4   80.75   14.87
  -9   7  -4  107.30   18.17
  11  -7   4   43.50   14.86
 -11   7   4   40.27    9.99
 -11   7  -4   38.42   12.09
  11   7   4   41.18   14.53
 -11  -7   4   28.21   12.50
   0  -8   4 2054.99   98.12
   0   8   4 2021.86   96.76
   2  -8   4  761.24   45.63
  -2   8   4  801.79   42.21
   2   8  -4  904.00   44.09
  -2   8   4  840.46   40.83
  -2  -8  -4  879.91   48.44
   2   8   4  920.25   48.37
  -2  -8   4  837.73   46.57
   2  -8  -4  846.06   40.98
   4  -8   4  247.19   21.11
   4  -8   4  264.28   23.26
   4   8  -4  295.72   19.06
  -4  -8  -4  322.26   25.19
  -4   8   4  274.06   16.83
  -4  -8   4  263.28   21.72
   4   8   4  265.24   23.27
  -4  -8   4  263.32   23.16
  -4   8  -4  289.56   21.68
   6   8  -4  308.99   21.04
   6  -8   4  277.86   23.66
  -6  -8  -4  275.84   25.97
   6  -8   4  272.63   25.57
   6   8  -4  270.41   17.95
  -6   8   4  296.09   19.44
  -6  -8   4  273.20   23.25
  -6  -8   4  258.56   26.65
   6   8   4  272.72   26.11
   6   8   4  299.64   22.80
  -6   8  -4  286.59   23.66
   8  -8   4  123.49   20.68
   8   8  -4  129.19   11.71
  -8   8   4  136.59   13.74
   8   8  -4  132.53   13.94
  -8  -8  -4   83.34   18.04
  -8  -8   4  115.45   19.50
  -8   8  -4  130.54   19.51
   8   8   4  133.60   22.34
  10  -8   4  117.84   22.00
 -10   8   4  117.90   17.29
  10   8  -4   94.52   13.46
  10   8   4  108.50   22.20
 -10  -8   4  117.18   20.76
 -10   8  -4  147.97   22.31
  12  -8   4   20.30   12.56
 -12   8   4   25.31   10.50
 -12   8  -4   38.95   13.14
  12   8   4   36.36   16.31
   1  -9   4  398.43   26.69
  -1   9   4  426.92   23.78
   1   9  -4  400.84   24.90
  -1  -9  -4  399.56   26.65
   1   9   4  397.78   26.30
  -1  -9   4  410.73   26.78
   1  -9  -4  397.14   23.71
  -1   9  -4  364.36   25.02
   3   9  -4  276.45   19.29
  -3   9   4  277.62   17.88
  -3  -9  -4  256.67   22.37
   3  -9   4  288.57   21.73
   3   9   4  220.85   21.22
  -3  -9   4  312.61   23.64
  -3   9  -4  283.84   21.21
  -5   9   4  202.34   15.05
   5  -9   4  211.18   19.58
   5  -9   4  231.62   22.14
  -5  -9  -4  212.10   21.42
   5   9  -4  240.89   18.01
   5   9  -4  212.85   14.93
  -5  -9   4  229.79   28.58
   5   9   4  227.37   18.72
  -5   9  -4  203.23   19.20
   5   9   4  218.42   22.01
  -5  -9   4  202.54   19.43
   7   9  -4   71.48   12.24
   7  -9   4   72.51   14.22
   7  -9   4   72.06   15.98
  -7   9   4   79.74   11.94
   7   9  -4   73.69   10.12
   7   9   4  104.08   19.05
  -7   9  -4   60.58   13.68
  -7  -9   4   81.31   16.02
   9   9  -4   85.37   12.13
   9   9  -4   87.55   14.61
   9  -9   4   62.74   15.44
   9   9   4   49.56   14.89
  -9  -9   4   63.17   14.91
  -9   9  -4   67.41   15.49
  11   9  -4   -1.20    3.33
  11   9  -4   -1.74    3.20
 -11   9   4   10.36    7.58
  11  -9   4   35.51   13.43
 -11  -9   4   16.70   12.63
  11   9   4   22.91   13.20
 -11   9  -4   15.59   10.41
   0  10   4  946.26   50.67
   0 -10  -4  972.17   51.21
   0  10  -4  988.54   51.64
   0 -10   4  972.99   52.97
  -2  10   4  426.95   26.11
   2  10  -4  433.68   26.74
  -2 -10  -4  412.14   28.87
   2 -10   4  373.40   27.44
  -2 -10   4  391.55   28.48
   2  10   4  451.49   29.43
  -2  10  -4  414.74   27.81
   2 -10  -4  435.80   23.53
  -4 -10  -4  325.64   27.90
   4 -10   4  363.53   26.69
  -4  10   4  352.61   22.04
   4  10  -4  366.77   24.56
   4  10   4  382.53   28.84
  -4 -10   4  344.65   28.83
  -4 -10   4  349.86   27.31
  -4  10  -4  359.80   26.40
   6  10  -4  484.87   31.13
  -6  10   4  479.46   28.52
  -6 -10  -4  464.15   36.16
   6  10  -4  450.74   26.94
   6 -10   4  444.56   35.01
   6 -10   4  461.98   33.20
  -6  10  -4  485.61   33.72
  -6 -10   4  441.60   33.17
   6  10   4  462.22   31.56
   6  10   4  464.70   36.32
  -6 -10   4  421.24   36.16
   8 -10   4  156.62   24.22
   8  10  -4  166.43   14.41
  -8  10   4  158.66   15.68
  -8 -10  -4  137.05   23.72
  -8 -10   4  192.77   25.09
   8  10   4  168.81   26.14
  -8  10  -4  123.30   20.34
  10  10  -4   91.83   14.17
  10 -10   4  117.61   21.90
 -10  10   4   86.97   15.58
 -10  10  -4   98.04   18.52
 -10 -10   4   81.36   18.02
  10  10   4   71.80   18.32
  12  10  -4   -0.70    3.95
  12 -10   4    8.59   10.61
 -12  10   4   39.40   11.44
  12  10  -4   -0.30    3.70
  12  10   4   11.32   11.11
  12  10   4   49.63   21.57
 -12  10  -4   30.15   12.46
   1 -11   4  278.43   21.93
  -1  11   4  280.58   19.01
  -1 -11  -4  280.57   21.53
   1  11  -4  293.16   21.18
  -1  11   4  281.91   21.37
   1  11   4  270.37   21.06
   1 -11  -4  265.53   18.91
  -1 -11   4  266.92   22.05
  -1  11  -4  297.94   21.65
   3  11  -4  138.63   13.74
  -3 -11  -4  149.82   20.19
   3 -11   4  154.21   19.72
  -3  11   4  109.89   11.75
  -3 -11   4   81.93   15.92
   3 -11  -4  124.64    8.58
   3  11   4  136.55   18.61
  -3  11  -4  121.54   16.70
  -5  11   4  185.71   15.57
  -5 -11  -4  201.43   25.85
   5 -11   4  213.98   19.76
   5 -11   4  192.60   24.85
   5  11  -4  210.39   18.63
  -5 -11   4  237.07   21.27
  -5 -11   4  178.44   27.24
  -5  11  -4  192.16   19.29
   5  11   4  230.56   22.69
  -7  11   4  128.86   15.99
   7  11  -4  133.93   18.85
   7 -11   4  137.53   20.22
   7  11  -4  110.67   11.51
   7 -11   4   73.58   17.43
   7  11   4   78.65   18.36
  -7  11  -4  105.89   18.33
  -7 -11   4  115.72   18.89
  -9  11   4   67.87   13.31
   9  11  -4   63.14   13.05
   9 -11   4   59.58   15.65
   9  11  -4   70.03   12.42
  -9 -11   4   63.80   16.26
  -9  11  -4   65.01   15.20
   9  11   4   73.02   17.96
 -11  11   4   20.58    9.40
  11 -11   4   32.11   11.91
  11  11   4    4.88    8.43
  11  11   4   28.54   18.48
 -11  11  -4   19.58   10.99
   0 -12   4  738.91   45.39
   0  12   4  704.32   45.13
   0 -12  -4  765.88   43.33
   0  12  -4  842.23   44.92
   0  12   4  772.04   42.96
   2 -12   4  380.79   28.00
   2  12  -4  399.34   26.98
  -2 -12  -4  351.11   27.81
  -2  12   4  390.98   26.64
  -2 -12   4  359.51   28.75
   2 -12  -4  405.03   23.42
  -2  12  -4  401.82   28.03
   2  12   4  417.99   28.82
  -4  12   4  299.89   20.59
   4  12  -4  298.72   23.05
  -4 -12  -4  287.12   25.37
   4 -12   4  233.66   22.10
  -4  12  -4  306.98   24.24
   4  12   4  258.66   24.56
  -4 -12   4  265.88   26.29
  -4 -12   4  282.97   24.63
  -6  12   4  263.64   20.40
   6  12  -4  275.92   23.39
   6 -12   4  273.99   26.15
   6 -12   4  286.87   25.29
   6  12  -4  294.01   19.95
  -6 -12  -4  173.03   38.83
   6  12   4  313.89   23.67
  -6  12  -4  261.66   24.35
  -6 -12   4  285.46   25.68
  -6 -12   4  254.21   35.47
   6  12   4  269.05   27.10
   8 -12   4  110.42   20.46
   8  12  -4   87.99   12.41
   8 -12   4   94.95   20.25
  -8  12   4   96.86   14.44
   8  12  -4  100.61   16.86
   8  12   4   99.31   20.65
  -8 -12   4   77.80   16.40
  -8  12  -4  102.93   18.56
 -10  12   4   91.89   15.81
  10  12  -4   74.96   14.97
  10 -12   4   72.96   17.56
  10  12   4   47.94   18.45
  10  12   4   44.99   16.05
 -10  12  -4   66.38   15.32
  -1  13   4  288.37   23.67
   1  13  -4  366.95   24.82
  -1 -13  -4  313.76   24.12
   1 -13   4  303.89   24.61
  -1 -13   4  275.30   24.26
  -1  13  -4  298.12   23.54
   1 -13  -4  295.98   21.16
   1  13   4  275.52   25.58
   1  13   4  307.64   23.55
  -3  13   4   87.59   13.64
   3  13  -4   93.03   14.88
  -3 -13  -4  117.01   18.33
   3 -13   4   98.24   15.99
  -3  13  -4  107.72   16.62
   3 -13  -4   88.82    8.23
  -3 -13   4   98.75   18.29
   3  13   4  105.82   17.26
   3  13   4   64.42   15.77
   5 -13   4   82.77   15.65
  -5  13   4   86.62   13.36
   5 -13   4   80.61   16.18
   5  13  -4   91.93   15.34
   5  13   4   84.01   16.37
  -5 -13   4   90.93   16.20
  -5  13  -4   93.94   16.52
  -5 -13   4  108.79   21.68
   7  13  -4   61.67   10.85
  -7  13   4   51.94   10.65
   7  13  -4   26.81   10.05
   7 -13   4   30.43   10.83
  -7 -13   4   55.93   13.39
   7  13   4   12.04    9.03
  -7  13  -4   45.85   12.31
   7  13   4   33.84   15.71
   9  13  -4   34.81   10.87
   9 -13   4   38.56   12.69
  -9  13   4   62.11   12.92
   9  13  -4   45.40    9.60
  -9  13  -4   50.25   13.31
   9  13   4   34.34   13.29
   9  13   4   65.31   22.01
  11  13  -4    8.90    7.92
  11  13  -4    0.61    4.61
 -11  13   4   11.59    9.15
  11 -13   4   20.66   10.68
 -11  13  -4   17.43   10.78
  11  13   4   16.07   12.59
  11  13   4    9.52   13.64
   0 -14   4  700.25   43.58
   0  14  -4  731.05   42.17
   0  14   4  554.75   38.40
   0  14   4  721.57   44.29
   0 -14  -4  659.66   40.05
   2  14  -4  431.79   31.39
  -2  14   4  494.03   32.19
  -2 -14  -4  455.02   32.86
   2 -14   4  419.84   31.93
   2  14   4  448.96   32.44
  -2  14  -4  493.49   33.24
  -2 -14   4  456.11   34.56
   2 -14  -4  470.34   27.91
   2  14   4  450.98   35.79
  -4  14   4  240.30   19.79
   4 -14   4  251.48   23.06
   4  14  -4  250.96   21.90
  -4 -14  -4  266.86   24.35
   4  14   4  217.32   22.92
   4  14   4  267.21   34.74
  -4 -14   4  276.79   34.19
  -4  14  -4  199.23   20.93
   4 -14  -4  241.17   13.89
  -4 -14   4  239.64   23.37
   6 -14   4  123.06   20.23
  -6  14   4  136.78   14.03
   6 -14   4  163.05   24.07
   6  14  -4  158.74   20.88
  -6 -14  -4   69.11   20.52
  -6 -14   4  143.28   22.18
   6  14   4  105.39   19.85
   6  14   4  117.59   25.17
  -6  14  -4  186.56   24.51
  -6 -14   4   99.31   21.69
   8  14  -4   66.11   11.36
   8 -14   4   73.14   16.40
  -8  14   4   66.08   13.44
   8  14  -4   77.67   14.73
   8  14   4   57.15   15.88
  -8 -14   4   66.31   16.29
   8  14   4   33.49   17.76
  -8  14  -4   81.90   16.16
  10 -14   4   78.00   18.46
  10  14  -4   56.52   13.57
 -10  14   4   71.90   14.88
  10  14   4   66.92   19.07
 -10  14  -4   90.92   20.09
  10  14   4   71.59   22.55
  -1 -15  -4  187.42   19.07
   1  15  -4  200.56   19.86
   1 -15   4  217.17   26.40
  -1  15   4  201.67   24.96
   1  15   4  206.69   26.92
  -1 -15   4  154.03   23.35
   1 -15  -4  224.07   17.93
   1  15   4  213.22   19.69
  -1  15  -4  184.23   19.40
  -3  15   4  118.15   16.73
  -3 -15  -4  123.03   19.66
   3 -15   4  100.61   17.53
   3  15  -4  122.91   18.92
   3  15   4  106.94   20.90
   3 -15  -4  101.50    9.89
  -3  15  -4  108.79   17.82
  -3 -15   4  107.22   20.29
   3  15   4   77.31   15.78
   5  15  -4   74.36   15.80
  -5 -15  -4   85.32   18.26
   5 -15   4   97.34   17.61
  -5  15   4   90.20   14.24
  -5 -15   4   98.95   21.15
   5  15   4  110.78   20.00
  -5  15  -4   62.07   14.67
   5  15   4  119.99   24.64
  -5 -15   4   96.33   18.23
   7 -15   4   45.70   13.04
   7  15  -4   24.05    7.44
   7 -15   4   61.68   16.98
  -7  15   4   48.32   10.94
   7  15  -4   38.57   12.08
   7  15   4   49.32   14.11
  -7  15  -4   26.93    9.84
   7  15   4   24.46   13.67
  -7 -15   4   41.59   13.32
   9  15  -4   55.05   13.99
  -9  15   4   44.75   11.76
   9  15  -4   50.87   12.22
   9 -15   4   53.93   14.64
  -9  15  -4   29.45   10.67
   9  15   4   28.05   11.79
   9  15   4   30.65   17.17
  11 -15   4   -1.22    7.96
  11  15  -4   12.23    9.43
 -11  15   4   26.37   10.94
  11  15  -4   -0.31    5.26
 -11  15  -4   45.92   14.52
  11  15   4   20.66   18.04
  11  15   4   28.09   12.98
   0 -16  -4  446.13   30.48
   0 -16   4  405.90   32.87
   0  16  -4  480.66   32.76
   0  16   4  362.65   32.15
  -2  16   4  387.98   28.30
   2 -16   4  284.33   26.40
  -2 -16  -4  291.09   26.15
   2  16  -4  343.95   26.95
   2  16   4  333.54   30.41
  -2  16  -4  335.86   27.26
  -2 -16   4  253.13   27.21
   2  16   4  310.83   26.59
   2 -16  -4  324.21   22.53
  -4 -16  -4  242.48   30.36
   4 -16   4  248.02   23.82
  -4  16   4  186.55   19.10
  -4 -16   4  220.92   31.34
  -4 -16   4  196.91   26.34
  -4  16  -4  244.49   22.88
   4  16   4  251.96   24.51
   4  16   4  157.75   28.07
   4 -16  -4  213.08   14.48
   6 -16   4  140.15   22.42
   6  16  -4  207.70   26.45
  -6 -16  -4  113.49   25.15
  -6  16   4  164.40   16.94
  -6 -16   4  193.26   26.49
  -6 -16   4  183.21   31.48
   6  16   4  207.53   28.40
  -6  16  -4  156.74   24.18
   6  16   4  144.78   28.49
   8 -16   4   91.99   18.77
   8  16  -4   60.32   11.80
  -8  16   4   56.47   12.32
   8  16  -4   50.86   13.67
   8  16   4   63.77   18.18
  -8  16  -4   69.63   16.20
   8  16   4   67.74   21.62
 -10  16   4   61.79   14.02
  10 -16   4   32.64   13.08
  10  16  -4   47.15   13.01
  10  16   4   46.49   16.34
  10  16   4   31.58   18.61
 -10  16  -4   47.25   14.93
   1  17  -4  238.87   22.48
  -1 -17  -4  201.15   20.28
   1 -17   4  164.52   24.33
  -1  17   4  204.45   26.43
   1  17   4  166.92   26.00
  -1 -17   4  188.11   26.41
  -1  17  -4  196.11   20.47
   1  17   4  206.88   20.41
   1 -17  -4  209.77   18.33
  -3  17   4  131.48   20.05
   3 -17   4  114.89   19.48
   3  17  -4  104.57   18.95
  -3 -17  -4  121.39   20.04
   3  17   4  149.62   26.64
   3 -17  -4  126.85   12.18
  -3 -17   4  148.48   21.67
  -3  17  -4  139.00   22.18
   3  17   4  155.94   22.65
  -3 -17   4  102.32   20.76
  -5  17   4   94.33   15.72
   5  17  -4   65.79   15.01
   5  17   4   84.70   21.98
  -5 -17   4   59.28   17.45
  -5  17  -4  132.51   21.83
   5 -17  -4  103.69    7.37
  -5 -17   4  102.56   19.54
   5  17   4   91.07   18.62
   7  17  -4   43.70   12.79
   7 -17   4   68.12   15.08
  -7  17   4   58.04   12.74
   7  17   4   53.50   15.13
   7  17   4   69.76   21.27
  -7  17  -4   47.06   13.88
   9 -17   4   40.24   13.30
   9  17  -4   21.01    9.88
  -9  17   4   29.63    9.67
   9  17  -4   36.61   12.48
   9  17   4   23.33   11.47
   9  17   4   23.75   17.15
  -9  17  -4   36.77   12.52
   0 -18  -4  224.33   21.71
   0 -18   4  249.82   24.82
   0  18   4  244.10   25.87
   0  18  -4  271.61   25.03
  -2 -18  -4  198.69   25.69
   2  18  -4  169.93   23.33
  -2  18   4  158.83   23.38
  -2  18  -4  177.59   24.29
  -2 -18   4  143.89   25.26
   2  18   4  190.98   25.18
   2  18   4  224.49   30.51
   2 -18  -4  160.85   16.17
  -4 -18  -4  113.21   21.49
  -4  18   4  132.40   19.21
   4  18  -4  100.86   18.97
   4  18   4  104.25   20.34
  -4  18  -4  147.25   22.22
  -4 -18   4  139.97   25.74
   4  18   4  174.44   29.95
  -4 -18   4  114.15   20.41
   4 -18  -4  113.00   10.86
   6  18  -4  119.24   21.03
  -6  18   4  115.66   18.03
   6 -18   4   75.73   17.38
  -6  18  -4   87.24   19.12
   6  18   4   90.70   23.39
   6  18   4   93.60   20.00
   8  18  -4   54.12   14.59
  -8  18   4   50.44   12.43
   8 -18   4   37.03   12.44
   8  18   4   52.40   16.01
  -8  18  -4   58.27   15.61
   8  18   4   71.18   20.17
 -10  18   4    9.50    8.90
  10 -18   4   48.59   16.02
  10  18  -4   41.14   14.02
 -10  18  -4   57.03   15.83
  10  18   4   36.87   15.98
  10  18   4   66.42   18.46
  -1  19   4  112.10   19.93
   1  19  -4  113.24   18.91
  -1 -19  -4  103.14   17.89
  -1  19  -4  114.41   19.24
   1 -19  -4  113.52   17.09
   1  19   4   88.91   19.21
  -3 -19  -4   73.22   16.49
  -3  19   4  122.90   19.09
   3  19  -4   89.28   18.20
   3  19   4   77.40   16.60
  -3  19  -4   82.37   16.31
  -3 -19   4   56.31   14.75
  -3 -19   4   99.55   21.19
   3  19   4   64.82   17.82
   3 -19  -4   63.60   11.07
   5  19  -4   38.80   12.76
  -5  19   4   77.59   14.34
   5  19   4   62.39   15.73
  -5  19  -4   45.53   13.29
   5 -19  -4   51.59    7.54
   5  19   4   62.86   20.09
   7  19  -4   40.89   13.35
   7 -19   4   15.75    9.61
  -7  19   4   42.00   10.66
   7  19   4   45.75   14.53
   7  19   4    3.05   12.99
  -7  19  -4   37.25   12.60
   9 -19   4   27.45   10.92
  -9  19   4   16.40   10.10
   9  19  -4    5.83    9.09
   9  19   4   26.65   16.82
  -9  19  -4    9.05    9.64
   9  19   4   22.59   14.41
   0 -20  -4   97.15   17.41
   0  20  -4  152.41   22.99
   0  20   4  135.20   22.97
   2  20  -4  127.40   21.17
  -2 -20  -4  140.73   22.35
  -2  20   4  113.81   20.37
   2 -20  -4  128.45   17.53
   2  20   4   97.45   21.53
  -2  20  -4   66.43   16.67
   4  20  -4  102.80   19.35
  -4  20   4   80.92   15.80
   4 -20  -4   75.32   11.35
  -4  20  -4   89.58   17.88
   4  20   4   90.71   19.13
   4  20   4   77.43   18.78
   6  20  -4   68.15   17.12
  -6  20   4   61.27   14.04
  -6  20  -4   57.51   15.33
   6  20   4   49.81   15.79
  -8  20   4   45.08   12.36
   8  20  -4   27.91   11.28
   8 -20   4   18.96   11.31
  -8  20  -4   56.99   15.14
   8  20   4   40.76   14.60
   8  20   4    4.26   13.02
  -1  21   4   60.49   15.35
   1  21  -4   71.38   16.91
  -1 -21  -4   66.27   15.53
   1  21   4   69.69   17.74
  -1  21  -4   48.48   13.85
   1 -21  -4   72.83   14.17
   3  21  -4   73.31   17.57
  -3  21   4   53.32   14.31
   3 -21  -4   55.63   11.09
  -3  21  -4   65.95   16.40
   3  21   4   60.96   18.59
   5  21  -4   53.26   14.74
  -5  21   4   42.87   12.45
   5  21   4   15.75   11.58
   5  21   4   22.62   14.71
  -5  21  -4   32.50   12.64
  -7  21   4   29.49   10.05
   7 -21   4    9.34   10.05
   7  21  -4   55.17   15.26
  -7  21  -4   -0.97    7.85
   7  21   4   13.11   13.11
   7  21   4   47.69   15.77
   9  21  -4   18.98   12.21
   9 -21   4   26.22   12.18
  -9  21   4   17.48   10.78
   9  21   4   -0.63    9.06
  -9  21  -4   33.77   13.11
   9  21   4   38.97   20.51
   0 -22  -4  131.39   20.03
   0  22  -4  121.32   21.31
   0  22   4  150.55   26.27
   2  22  -4  130.16   23.53
  -2  22   4  189.10   27.54
  -2 -22  -4  194.45   26.83
  -2  22  -4  156.95   25.28
   2  22   4  166.37   28.13
   2 -22  -4  145.32   19.84
  -4  22   4  108.87   21.21
   4  22  -4  121.26   22.82
   4 -22  -4  102.85   14.30
   4  22   4  121.77   25.56
  -4  22  -4  124.59   22.22
   6  22  -4   68.81   16.18
  -6  22   4   89.30   16.86
   6  22   4   90.99   20.94
  -6  22  -4   58.66   15.98
   6  22   4   39.47   17.14
   8  22  -4   34.21   12.98
   8 -22   4   40.62   14.04
  -8  22   4   21.12   10.89
   8  22   4    9.17   13.96
  -8  22  -4   51.94   16.40
   8  22   4    6.74   10.69
   1  23  -4   57.99   15.51
  -1 -23  -4   59.19   14.71
  -1  23   4   82.43   18.59
  -1  23  -4   56.96   15.54
   1 -23  -4   69.63   14.85
   1  23   4   58.43   16.45
  -3  23   4   51.23   14.41
   3  23  -4   43.24   14.26
  -3  23  -4   61.85   16.20
   3 -23  -4   60.86   11.78
   3  23   4   36.99   16.45
   5  23  -4   49.91   14.10
  -5  23   4   37.26   11.98
   5  23   4   38.22   16.73
   7  23  -4   33.77   14.50
   7 -23   4   11.25   10.14
  -7  23   4   32.28   11.15
   7  23   4   25.60   16.75
  -7  23  -4   12.04   10.60
   0 -24  -4  103.69   19.33
   0  24   4   87.12   20.90
   0  24  -4   82.76   18.36
  -2  24   4   91.47   20.67
  -2 -24  -4   82.49   18.93
   2  24  -4   89.18   18.52
  -2  24  -4  111.38   20.66
   2 -24  -4   90.86   16.06
   2  24   4  121.62   24.88
  -4  24   4   77.11   17.51
   4  24  -4   84.76   19.83
   4  24   4   70.22   20.98
  -4  24  -4   67.70   17.54
  -6  24   4   42.48   12.85
  -6  24  -4   32.33   14.80
   6  24   4   -0.53   11.65
   8  24  -4   19.79   13.27
  -8  24   4   45.03   14.53
   8 -24   4   12.69   10.36
  -8  24  -4   15.21   11.26
   8  24   4   29.59   18.15
   1  25  -4   15.48   11.37
  -1  25   4   50.23   15.60
   1 -25  -4   26.10   10.73
  -1  25  -4   37.16   12.65
   1  25   4   14.34   12.05
   3  25  -4   31.87   12.24
  -3  25   4    3.87    8.47
  -3  25  -4   26.16   13.17
   3  25   4   58.70   18.71
   3 -25  -4   16.96    7.25
  -5  25   4    4.56    8.82
   5  25  -4    3.64    9.90
   5 -25  -4   -0.56    2.76
  -5  25  -4   10.91   10.75
   5  25   4   26.74   16.50
   7  25  -4   -3.15    8.09
  -7  25   4    3.40    8.02
   7 -25   4    4.36    8.12
   7  25   4   -1.93   10.42
  -7  25  -4   10.13   11.90
   0  26   4   36.11   16.26
   0  26  -4   77.74   19.12
  -2  26   4   36.42   15.15
   2  26  -4   40.81   13.24
   2  26   4   47.90   15.74
  -2  26  -4   47.78   15.09
   2 -26  -4   37.04   11.86
   4  26  -4   33.03   13.36
  -4  26   4   42.57   14.72
  -4  26  -4   29.73   11.53
   4  26   4   36.27   14.30
   6  26  -4    8.61   10.44
  -6  26   4   18.18   11.51
   6 -26  -4    0.99    3.01
   6  26   4    9.12   12.42
  -6  26  -4    5.39   10.77
   1  27  -4   -1.69    8.41
  -1  27   4    6.15   10.79
  -1  27  -4   17.87   11.78
   1  27   4    7.06   11.02
  -3  27   4   20.20   12.77
   3  27  -4   11.05   11.55
   3  27   4   14.12   14.96
  -3  27  -4   10.26   10.07
   3 -27  -4   -2.69    4.05
   5  27  -4    6.00    9.71
  -5  27   4    5.56    8.94
   5 -27  -4   -0.34    3.73
   5  27   4    1.39   11.62
  -5  27  -4    5.11    9.09
   0  28  -4   31.43   13.17
   0  28   4   17.99   14.19
   2  28  -4   28.58   12.33
  -2  28   4   43.35   16.29
   2  28   4   30.96   17.63
  -2  28  -4   38.02   15.49
  -4  28   4   10.09   10.87
   4  28  -4    9.77   10.87
   4  28   4   12.21   13.03
   4 -28  -4   -0.45    4.50
  -4  28  -4    5.49    9.74
  -1  29   4   14.10   13.96
   1  29  -4   13.45   11.92
   1  29   4   20.67   13.57
  -1  29  -4   36.26   14.05
   3  29  -4    1.68    9.18
  -3  29   4   13.41   11.95
   3  29   4   12.92   13.49
   3 -29  -4   -0.86    5.41
  -3  29  -4   17.48   13.25
   0  30  -4    2.35   10.69
   0  30   4   48.90   17.32
  -2  30   4    7.84   11.16
   2  30  -4    6.10   11.05
   2  30   4    4.52   12.09
  -2  30  -4   14.80   11.46
   0   0   5  173.33   15.25
   0   0   5  198.76   12.07
   2   0   5  566.52   31.62
  -2   0   5  578.04   26.93
   2   0   5  587.13   36.32
   4   0   5  424.43   28.17
   4   0   5  433.61   31.80
  -4   0  -5  463.49   32.33
  -4   0   5  454.57   24.49
  -6   0  -5  308.17   26.34
   6   0   5  257.99   25.24
  -6   0   5  276.22   18.63
   6   0   5  310.96   23.74
   8   0   5  102.04   20.13
  -8   0   5  120.24   11.52
  -8   0  -5  124.86   21.42
 -10   0   5   61.05   10.48
  10   0   5   55.46   15.97
  12   0   5    5.67    9.51
 -12   0   5   13.66    6.35
   1  -1   5 1334.73   66.15
   1  -1   5 1229.31   60.66
  -1   1   5 1283.90   62.65
   1   1   5 1218.10   64.76
   1   1   5 1261.89   59.97
  -1  -1   5 1241.23   58.34
  -3  -1  -5  366.63   27.48
   3  -1   5  362.25   27.78
   3  -1   5  374.25   24.37
  -3   1  -5  426.11   23.52
  -3  -1   5  378.83   20.13
   3   1   5  402.41   28.31
   3   1   5  366.54   23.79
   5  -1   5  924.44   53.26
  -5   1   5  921.85   46.04
  -5   1   5 1035.58   47.94
  -5  -1  -5 1007.86   58.26
  -5   1   5  938.89   50.16
   5  -1   5  921.96   57.22
  -5   1  -5 1069.64   52.71
   5   1   5 1006.85   58.42
  -5  -1   5 1029.20   50.19
  -5  -1   5  847.51   50.84
   5   1   5  967.23   53.30
  -7  -1  -5  282.42   26.90
  -7   1   5  267.82   18.59
  -7   1   5  287.60   17.98
   7  -1   5  284.06   27.24
  -7  -1   5  291.73   20.18
  -7   1  -5  257.93   25.76
   7   1   5  260.53   26.57
  -7   1  -5  308.40   23.51
   9  -1   5  155.68   25.96
  -9   1   5  176.30   13.87
   9   1   5  180.68   27.96
  -9  -1   5  172.03   15.66
  11  -1   5  102.54   22.26
 -11   1   5   62.39    9.31
 -11  -1   5   45.97   10.30
  11   1   5   44.81   14.94
   0  -2   5  249.75   14.94
   0   2   5  214.52   16.87
   0   2   5  216.50   12.78
   2  -2   5  230.95   20.31
   2  -2   5  270.25   18.09
  -2  -2  -5  265.25   20.49
  -2   2   5  258.29   16.59
   2   2   5  214.96   19.59
  -2  -2   5  263.82   14.96
   2   2   5  265.31   16.89
  -2   2  -5  252.36   16.08
  -4   2   5  138.57    9.91
   4  -2   5  147.14   14.12
  -4  -2  -5  133.26   18.36
   4  -2   5  156.32   20.23
  -4   2   5  138.52    9.06
  -4   2   5  132.82    7.79
  -4   2  -5  134.02   12.55
   4   2   5  148.96   19.18
  -4  -2   5  126.08   11.67
   4   2   5  127.95   12.77
   6  -2   5  210.47   26.72
  -6  -2  -5  237.24   22.74
  -6   2   5  212.89   13.48
   6  -2   5  213.06   19.97
  -6   2   5  222.89   14.75
   6   2   5  230.17   28.06
  -6  -2   5  222.51   17.55
   6   2   5  242.25   20.70
  -6   2  -5  237.34   19.36
  -8   2   5  113.91   11.44
   8  -2   5  129.70   21.73
  -8   2   5  108.76    9.02
  -8  -2  -5  107.61   20.17
   8   2   5  103.31   20.41
  -8  -2   5  131.76   16.15
  -8   2  -5  104.98   16.39
 -10   2   5   44.51    6.92
  10  -2   5   50.29   14.74
  10   2   5   58.42   15.83
 -10  -2   5   34.55    8.87
  12  -2   5    4.33    8.80
 -12  -2   5   11.36    7.51
  12   2   5   13.08   12.18
   1  -3   5  660.90   35.79
  -1   3   5  641.27   35.80
   1  -3   5  689.70   40.06
  -1  -3  -5  693.79   38.97
  -1   3  -5  705.50   33.88
   1   3   5  669.43   38.77
  -1  -3   5  615.77   33.90
   1   3   5  692.49   33.94
  -3  -3  -5  193.41   17.69
   3  -3   5  161.05   20.09
  -3   3   5  162.54   11.03
   3  -3   5  145.86   13.89
  -3  -3   5  170.28   12.47
  -3   3  -5  167.39   13.57
   3   3   5  165.65   13.49
   3   3   5  171.44   17.01
  -5  -3  -5  629.15   42.31
   5  -3   5  610.32   38.58
   5  -3   5  639.80   42.79
  -5   3   5  630.22   29.59
  -5   3   5  623.31   29.63
  -5   3   5  621.85   31.22
   5   3   5  652.96   38.29
  -5  -3   5  629.39   36.52
   5   3   5  640.00   42.41
  -5   3  -5  692.51   38.00
  -5  -3   5  581.25   37.78
  -7  -3  -5  158.00   23.77
  -7   3   5  146.94    8.30
  -7   3   5  176.51   13.20
   7  -3   5  162.08   24.29
  -7  -3   5  163.03   15.23
   7   3   5  135.72   23.72
   7   3   5  126.44   23.00
  -7   3  -5  168.12   16.81
   9  -3   5  113.33   21.25
  -9   3   5  134.26   16.27
  -9   3  -5  106.09   18.54
  -9  -3   5  130.38   17.25
   9   3   5  141.01   24.13
  11  -3   5   90.49   20.90
  11   3   5   36.21   16.02
 -11  -3   5   74.69   14.25
   0   4  -5  555.53   28.33
   0   4   5  595.64   33.27
   0  -4   5  565.70   31.09
   2  -4   5  465.14   27.48
  -2   4   5  420.86   24.15
  -2  -4  -5  379.01   28.28
   2  -4   5  446.96   30.63
  -2   4  -5  469.08   25.69
   2   4   5  470.05   29.97
  -2  -4   5  436.35   24.84
   2   4   5  434.91   24.96
   4  -4   5   98.81   16.29
  -4   4   5   66.61    4.67
  -4   4   5   84.05    4.88
  -4  -4  -5   94.09   15.64
  -4   4   5   78.53    4.85
   4  -4   5   81.79   13.20
  -4   4   5   89.65    5.84
  -4   4  -5   81.46   11.97
   4   4   5  108.65   13.62
  -4  -4   5   79.03   12.08
   4   4   5   84.20   15.34
  -6  -4  -5   94.68   17.02
   6  -4   5   97.28   16.44
  -6   4   5   90.62    8.37
   6  -4   5   91.77   16.93
   6   4   5   84.08   17.39
  -6   4  -5  106.92   15.49
  -6  -4   5   88.26   13.56
  -6  -4   5   66.51   14.42
   6   4   5   88.69   14.75
   8  -4   5   72.57   16.27
  -8   4   5   50.10    9.24
  -8  -4  -5   73.58   16.59
  -8   4  -5   73.58   14.22
   8   4   5   45.92   13.63
  -8  -4   5   69.60   12.28
 -10   4   5   54.73   10.60
  10  -4   5   26.70   13.39
 -10  -4   5   61.80   13.19
  10   4   5   59.87   16.55
 -10   4  -5   23.69    8.99
  12  -4   5   13.28   11.52
  12   4   5   20.46   13.75
 -12  -4   5   21.87   10.31
  -1  -5  -5 1926.13   92.77
  -1   5   5 1926.44   89.27
   1  -5   5 1832.87   90.20
   1   5   5 1861.86   92.32
   3  -5   5  407.86   27.60
  -3  -5  -5  492.75   31.94
  -3   5   5  470.61   21.98
   3  -5   5  402.86   30.54
  -3  -5   5  395.55   25.92
   3   5   5  415.52   25.78
  -3   5  -5  423.27   26.45
   3   5   5  426.53   30.44
  -5   5   5  415.69   21.61
  -5  -5  -5  400.78   31.74
   5  -5   5  419.27   32.08
   5  -5   5  387.58   28.69
  -5  -5   5  375.57   28.79
  -5   5  -5  405.22   27.61
   5   5   5  383.39   31.15
  -5  -5   5  415.78   27.70
   5   5   5  418.78   27.72
  -7   5   5   94.63    9.78
  -7  -5  -5  105.81   19.90
   7  -5   5   81.66   17.15
  -7   5  -5  106.23   16.81
  -7  -5   5  122.11   17.08
   7   5   5  121.25   18.50
   7   5   5  103.77   20.15
  -9   5   5  177.20   16.04
   9  -5   5  183.93   27.89
  -9   5  -5  157.83   23.41
   9   5   5  207.58   30.95
  -9  -5   5  159.90   21.24
  11  -5   5   49.87   16.73
 -11   5   5   82.87   14.56
 -11   5  -5   77.80   16.67
 -11  -5   5   56.58   14.29
  11   5   5   66.42   17.24
   0  -6  -5  348.56   23.23
   0   6   5  336.71   22.89
   0  -6   5  361.53   22.95
   0   6  -5  374.27   21.01
   2  -6   5  640.98   35.97
  -2   6   5  602.43   31.21
   2   6  -5  601.47   29.61
  -2  -6  -5  538.93   36.49
  -2   6  -5  592.77   33.81
   2   6   5  623.90   37.64
  -2  -6   5  625.18   34.33
   4  -6   5  223.55   19.61
  -4   6   5  233.99   12.63
   4  -6   5  228.78   22.06
  -4  -6  -5  231.49   21.87
   4   6   5  222.94   17.66
  -4   6  -5  286.02   20.01
   4   6   5  201.37   21.06
  -4  -6   5  230.87   19.54
  -6  -6  -5  102.49   18.41
   6  -6   5  102.97   16.81
   6  -6   5   85.44   17.12
  -6   6   5  107.77    9.43
   6   6   5  113.31   19.46
  -6  -6   5   80.48   14.25
   6   6   5  120.69   17.03
  -6   6  -5   94.42   15.57
  -6  -6   5  104.64   18.57
  -8  -6  -5   89.17   18.72
  -8   6   5   74.18   11.38
   8  -6   5   65.22   16.15
   8   6   5   92.82   20.19
  -8   6  -5   61.47   12.93
  -8  -6   5   61.53   13.28
  10  -6   5   45.52   13.57
 -10   6   5   45.93    9.84
  10   6   5   48.76   16.30
 -10   6  -5   47.23   12.59
 -10  -6   5   53.77   13.17
 -12   6   5    4.97    6.93
  12  -6   5   16.58   11.70
  12   6   5    7.55   10.67
 -12  -6   5   24.96   12.29
 -12   6  -5    1.73    6.89
  -1   7   5  988.49   49.46
   1   7  -5 1000.86   48.15
  -1  -7  -5  980.51   53.03
   1  -7   5  963.94   51.58
  -1   7  -5  950.76   49.81
   1  -7  -5  972.58   49.41
   1   7   5  950.51   52.50
  -1  -7   5  974.42   51.06
   3  -7   5  597.36   39.61
  -3   7   5  610.74   27.83
   3   7  -5  592.96   29.88
   3  -7   5  549.20   35.66
  -3  -7  -5  626.02   39.13
  -3   7  -5  578.14   34.86
   3   7   5  631.20   39.09
  -3  -7   5  554.73   35.09
   5  -7   5  653.28   44.52
   5  -7   5  634.01   40.96
  -5   7   5  637.47   33.16
  -5  -7  -5  652.85   44.43
   5   7  -5  653.96   31.45
   5   7  -5  690.07   31.97
  -5  -7   5  657.15   42.82
  -5   7  -5  663.38   40.32
   5   7   5  677.06   39.46
  -5  -7   5  639.03   40.49
   5   7   5  655.45   44.22
   7   7  -5  181.39    9.69
   7  -7   5  186.85   26.10
  -7   7   5  165.17   14.04
  -7  -7   5  174.10   21.84
   7   7   5  137.93   22.78
  -7   7  -5  176.44   18.43
   7   7   5  162.12   17.16
   9  -7   5  149.61   25.49
  -9   7   5  151.76   15.21
  -9  -7   5  196.42   24.29
   9   7   5  128.62   23.70
  -9   7  -5  157.25   22.49
  11  -7   5   66.92   17.98
 -11   7   5   48.98   11.25
 -11   7  -5   79.30   17.22
  11   7   5   63.93   18.70
 -11  -7   5   47.98   13.81
   0   8   5   99.90   12.82
   0  -8  -5  104.14   13.44
   0   8  -5   94.21   11.60
   0  -8   5   99.15   13.42
   2  -8   5  264.10   20.66
  -2   8   5  266.72   16.17
   2   8  -5  251.42   16.69
  -2  -8  -5  263.50   21.48
  -2   8  -5  256.51   19.38
  -2  -8   5  266.69   20.28
   2   8   5  266.32   21.51
   4   8  -5  226.04   13.03
   4   8  -5  211.38   13.83
  -4   8   5  209.08   13.18
   4  -8   5  195.30   18.42
   4  -8   5  234.28   21.85
  -4  -8  -5  200.75   20.31
  -4  -8   5  162.58   17.99
  -4   8  -5  179.21   17.34
   4   8   5  205.78   20.66
   4   8   5  204.67   16.76
   6  -8   5  171.42   24.41
   6   8  -5  157.07   10.48
   6   8  -5  164.69   11.31
  -6   8   5  132.12   11.60
  -6  -8  -5  171.62   25.06
   6  -8   5  115.32   18.87
  -6  -8   5  145.52   19.44
   6   8   5  152.06   15.35
   6   8   5  114.24   19.96
  -6   8  -5  130.57   18.70
  -6  -8   5  147.45   23.52
   8   8  -5  107.12    8.30
  -8   8   5  104.23   14.37
   8   8  -5  122.21    8.99
   8  -8   5  104.36   20.65
   8   8   5   90.05   20.27
  -8  -8   5  118.45   19.23
  -8   8  -5  131.09   20.38
 -10   8   5   64.02   12.44
  10  -8   5   46.55   14.81
 -10   8  -5   56.08   14.01
 -10  -8   5   56.16   14.67
  10   8   5   57.07   15.51
 -12   8   5   11.13    8.08
  12  -8   5   12.81   11.83
 -12   8  -5    5.93    8.66
  12   8   5   23.92   12.84
   1  -9   5  385.36   28.14
  -1  -9  -5  401.56   28.70
  -1   9   5  424.40   25.88
   1   9  -5  460.27   26.69
   1  -9  -5  454.59   26.56
  -1   9  -5  471.47   28.04
  -1  -9   5  464.66   29.35
   1   9   5  450.89   29.35
   3   9  -5  363.61   21.25
  -3   9   5  337.15   20.17
   3  -9   5  333.67   24.95
  -3  -9  -5  316.86   26.34
   3   9   5  307.26   25.87
  -3   9  -5  312.96   23.52
  -3  -9   5  312.56   24.90
   5  -9   5  470.91   36.25
  -5  -9  -5  478.13   36.62
  -5   9   5  464.48   26.43
   5   9  -5  516.76   26.21
   5  -9   5  427.69   32.57
   5   9  -5  476.17   27.32
   5   9   5  488.46   36.62
  -5   9  -5  530.83   34.02
  -5  -9   5  447.55   32.88
  -5  -9   5  474.32   35.73
   5   9   5  459.28   30.83
   7  -9   5  145.65   23.81
   7   9  -5  153.50   12.52
   7   9  -5  136.74   11.12
  -7   9   5  170.87   14.05
   7   9   5  146.44   20.41
  -7  -9   5  157.43   22.00
  -7   9  -5  172.03   22.50
   7   9   5  146.04   23.51
   9   9  -5  132.02   10.48
  -9   9   5  114.84   16.09
   9  -9   5  108.99   21.69
  -9   9  -5  133.37   20.77
   9   9   5  103.39   21.56
  -9  -9   5  116.98   20.29
 -11   9   5   55.52   12.03
  11  -9   5   44.75   15.28
 -11  -9   5   22.96   12.63
  11   9   5   43.65   15.21
 -11   9  -5   42.26   14.02
   0 -10   5  156.38   18.91
   0  10  -5  125.10   12.51
   0  10   5  124.66   12.54
   0 -10  -5  120.91   12.70
  -2  10   5  311.49   21.05
   2 -10   5  275.90   23.21
  -2  10   5  338.20   19.31
  -2 -10  -5  292.03   24.01
   2  10  -5  305.79   20.82
   2  10   5  350.34   25.59
   2 -10  -5  332.97   19.32
  -2 -10   5  284.32   23.54
  -2  10  -5  291.92   22.55
  -4  10   5  228.71   15.61
  -4 -10  -5  252.52   22.88
   4  10  -5  227.74   16.68
   4 -10   5  246.19   29.10
   4 -10   5  212.93   19.97
   4  10   5  200.10   21.17
  -4  10  -5  198.99   19.05
  -4 -10   5  195.19   20.92
  -6 -10  -5   64.99   14.90
   6  10  -5   92.59   10.94
   6 -10   5  123.40   21.08
  -6  10   5  101.95   12.31
   6  10  -5   89.40   12.06
  -6  10  -5   87.67   15.80
  -6 -10   5   97.82   20.30
  -6 -10   5  100.25   16.76
   6  10   5  118.51   17.13
   6  10   5   92.27   18.19
  -8  10   5   61.39   11.64
   8  10  -5   76.58    9.51
   8 -10   5   60.59   15.73
   8  10  -5   70.57   10.47
  -8  10  -5   77.21   16.45
   8  10   5   51.97   15.26
  -8 -10   5   70.60   15.42
 -10  10   5   59.55   11.42
  10 -10   5   48.94   15.10
 -10 -10   5   41.59   13.40
 -10  10  -5   54.09   15.30
  10  10   5   44.97   16.01
   1  11  -5  450.38   26.76
  -1  11   5  352.80   25.93
  -1 -11  -5  420.97   28.44
   1 -11   5  378.19   27.62
  -1  11   5  397.03   24.71
  -1  11  -5  392.63   26.50
  -1 -11   5  347.88   27.11
   1  11   5  374.74   26.93
   1 -11  -5  375.87   24.53
   3  11  -5  305.67   21.09
  -3  11   5  324.41   20.91
  -3 -11  -5  251.83   24.03
   3 -11   5  254.01   22.88
  -3 -11   5  295.56   25.13
   3  11   5  272.35   24.34
  -3  11  -5  297.93   23.17
   5 -11   5  302.65   25.28
   5 -11   5  323.32   28.62
   5  11  -5  322.65   19.75
   5  11  -5  320.37   22.13
  -5  11   5  295.45   19.98
  -5 -11  -5  266.51   26.93
   5  11   5  290.31   23.02
  -5  11  -5  331.15   26.45
   5  11   5  288.13   27.28
  -5 -11   5  267.39   33.16
  -5 -11   5  291.45   25.19
   7  11  -5  119.79   12.33
   7  11  -5  109.00   10.46
  -7  11   5  109.36   14.41
   7 -11   5   97.36   19.78
  -7 -11   5  101.43   22.15
   7  11   5  108.36   17.22
   7  11   5  121.41   21.50
  -7 -11   5  116.54   19.78
  -7  11  -5  105.31   18.47
   9 -11   5   92.36   21.10
  -9  11   5  130.79   17.89
   9  11  -5  140.83   13.27
   9  11   5  107.98   23.31
  -9  11  -5   96.02   18.09
  -9 -11   5  112.73   20.98
  11 -11   5   23.25   13.36
 -11  11   5   29.57    9.68
 -11  11  -5   34.20   12.62
  11  11   5   47.47   17.05
   0  12  -5   86.70   13.51
   0  12   5   33.10   10.03
   0 -12  -5   56.11   10.66
   0 -12   5   57.79   11.83
   0  12   5   80.50   12.39
   2  12  -5  161.23   15.45
   2 -12   5  179.69   18.19
  -2 -12  -5  208.92   19.67
  -2  12   5  183.34   16.64
  -2  12  -5  192.71   17.80
   2 -12  -5  199.20   14.30
   2  12   5  177.35   18.03
  -2 -12   5  176.71   18.62
  -4  12   5  150.04   13.56
   4 -12   5  182.36   23.53
   4  12  -5  143.09   14.56
  -4 -12  -5  176.85   24.31
   4  12   5  150.98   21.80
  -4  12  -5  140.51   20.11
  -4 -12   5  150.27   23.00
   6  12  -5   66.89    9.86
  -6 -12  -5   33.32   12.91
   6 -12   5   73.20   16.53
   6  12  -5   67.97   11.25
  -6  12   5   56.11   10.07
  -6 -12   5   59.61   14.04
   6  12   5   83.00   14.63
  -6 -12   5   69.37   18.46
   6  12   5   70.71   16.54
  -6  12  -5   48.62   12.60
   8 -12   5   68.58   16.11
   8  12  -5   67.19   10.98
  -8  12   5   44.41    9.89
   8  12  -5   62.67   10.34
   8  12   5   47.20   13.92
  -8 -12   5   51.93   13.93
  -8  12  -5   61.22   13.84
  10  12  -5   -0.29    2.72
  10  12  -5    0.67    2.98
 -10  12   5   19.25    8.64
  10 -12   5   12.85   11.23
 -10  12  -5   34.47   12.41
  10  12   5    7.51    9.23
   1  13  -5  264.34   21.47
  -1  13   5  249.16   19.40
  -1 -13  -5  297.60   23.31
   1 -13   5  288.47   23.76
  -1  13   5  283.10   23.15
  -1 -13   5  259.63   23.75
  -1  13  -5  276.89   22.28
   1  13   5  262.83   21.96
   1 -13  -5  264.50   19.97
   1  13   5  233.75   23.66
  -3 -13  -5  198.24   21.49
   3  13  -5  244.41   19.94
  -3  13   5  233.38   19.23
   3 -13   5  286.04   23.35
   3  13   5  236.40   22.80
  -3 -13   5  218.66   22.49
   3 -13  -5  239.24   15.00
  -3  13  -5  266.42   22.23
  -5  13   5  236.67   18.77
   5 -13   5  282.88   26.94
   5  13  -5  231.21   20.43
  -5 -13  -5  262.25   32.50
  -5 -13   5  271.56   26.82
  -5 -13   5  227.81   23.53
   5  13   5  280.60   26.81
  -5  13  -5  263.16   23.74
  -7  13   5  103.66   14.41
   7 -13   5   61.36   16.29
   7  13  -5  101.60   13.08
   7  13  -5   77.69   13.79
   7  13   5  113.57   21.63
  -7 -13   5   90.63   18.62
  -7 -13   5   93.86   21.99
  -7  13  -5   77.33   16.09
   9  13  -5   85.07   13.40
  -9  13   5   62.66   12.62
   9 -13   5   56.54   15.70
  -9  13  -5   68.63   16.14
   9  13   5  102.24   22.58
 -11  13   5   13.81    8.97
  11 -13   5   63.44   18.44
 -11  13  -5   33.66   13.49
  11  13   5   31.89   18.98
  11  13   5   40.46   15.21
   0  14   5  104.36   18.04
   0 -14  -5  111.96   15.59
   0  14  -5  106.54   16.49
   0  14   5   99.38   14.70
   0 -14   5  105.39   18.00
   2 -14   5   82.37   15.28
  -2 -14  -5  122.86   18.15
   2  14  -5  123.39   16.90
  -2  14   5   93.85   15.56
   2 -14  -5  103.50   10.73
  -2 -14   5   99.00   18.56
   2  14   5  134.80   19.44
  -2  14  -5  103.63   16.98
   2  14   5  100.94   20.01
  -4 -14  -5   92.61   16.97
  -4  14   5   91.19   13.09
   4  14  -5   83.38   14.67
   4  14   5   75.75   16.11
  -4  14  -5   99.92   17.31
  -4 -14   5   84.01   18.50
  -4 -14   5   60.40   13.71
   6  14  -5   64.91   10.29
  -6  14   5   68.68   11.67
   6 -14   5   67.41   15.49
   6  14  -5   64.55   12.83
  -6 -14   5   85.26   21.54
  -6  14  -5   65.58   15.14
  -6 -14   5   50.65   13.03
   6  14   5   71.28   13.94
   6  14   5   69.41   16.77
  -8  14   5   57.90   11.75
   8 -14   5   41.60   14.10
   8  14  -5   49.83   10.23
   8  14  -5   60.57   12.34
  -8  14  -5   60.19   15.18
  -8 -14   5   17.08   16.98
   8  14   5   57.70   19.50
   8  14   5   49.15   15.80
 -10  14   5   28.93   10.00
  10 -14   5   23.52   12.92
  10  14   5   60.04   17.52
  10  14   5   24.40   17.20
 -10  14  -5   31.99   11.31
   1  15  -5  475.23   32.41
  -1 -15  -5  437.68   32.00
   1 -15   5  460.18   34.55
  -1  15   5  440.50   32.95
  -1  15  -5  441.84   31.98
   1  15   5  422.27   34.79
   1  15   5  443.56   31.99
  -1 -15   5  413.95   33.92
   1 -15  -5  478.29   30.02
   3  15  -5  232.31   20.64
  -3  15   5  217.13   19.46
  -3 -15  -5  230.69   22.95
   3 -15   5  128.48   21.33
   3  15   5  198.74   29.22
   3 -15  -5  222.97   14.92
   3  15   5  183.80   25.08
  -3  15  -5  193.20   20.35
  -3 -15   5  220.33   29.52
  -5 -15  -5  145.62   24.75
   5  15  -5  224.77   20.45
  -5  15   5  171.52   16.66
  -5 -15   5  252.40   34.61
  -5  15  -5  189.26   25.58
   5  15   5  191.07   32.04
  -5 -15   5  157.18   23.84
   5  15   5  194.50   26.86
   7 -15   5   86.34   18.57
   7  15  -5   71.23   13.32
   7  15  -5   99.22   13.66
  -7  15   5   67.89   12.37
   7  15   5   47.23   18.14
   7  15   5   90.78   20.34
  -7  15  -5  105.64   20.27
  -7 -15   5   60.07   15.67
   9 -15   5   93.22   19.59
   9  15  -5   59.26   12.18
  -9  15   5   58.47   12.86
   9  15   5   65.20   21.78
  -9  15  -5   66.46   16.01
   9  15   5   70.99   17.88
   0  16   5  245.37   21.66
   0  16   5  255.28   25.29
   0 -16   5  219.99   23.73
   0  16  -5  258.44   22.64
   0 -16  -5  263.88   21.88
   2 -16   5  208.94   21.79
   2  16  -5  214.00   20.71
  -2 -16  -5  232.86   22.84
  -2  16   5  197.72   21.00
  -2 -16   5  206.13   28.33
   2  16   5  199.84   29.39
   2  16   5  208.60   21.64
  -2  16  -5  251.20   22.58
   2 -16  -5  244.50   18.17
   4  16  -5  114.13   18.19
  -4 -16  -5  139.93   22.36
  -4  16   5  144.93   18.58
   4  16   5  125.32   21.56
  -4 -16   5  132.75   21.48
   4 -16  -5  111.70    8.28
   4  16   5   95.50   21.83
  -4 -16   5  113.52   23.32
  -4  16  -5  144.31   21.20
   6  16  -5   52.17   12.29
  -6  16   5   77.92   13.31
   6 -16   5   53.71   14.94
  -6  16  -5   27.44   11.83
  -6 -16   5   58.11   17.53
   6  16   5   52.26   14.47
  -6 -16   5   47.08   12.98
   6  16   5   71.65   19.59
  -8  16   5   28.97    9.79
   8 -16   5   67.61   15.93
   8  16  -5   38.25   10.83
   8  16  -5   31.03    8.84
   8  16   5   54.01   16.75
  -8  16  -5   43.40   13.77
   8  16   5   14.95   13.56
  10 -16   5   16.10   11.76
  10  16  -5    0.89    4.83
  10  16  -5   -0.44    4.74
 -10  16   5   10.16    7.94
  10  16   5   19.77   16.70
 -10  16  -5   26.80   12.61
  10  16   5   15.05   13.02
  -1 -17  -5  376.82   28.23
  -1  17   5  276.98   27.08
   1  17  -5  289.85   25.88
   1 -17   5  307.29   27.97
   1  17   5  319.63   29.82
  -1  17  -5  362.45   28.27
   1  17   5  325.67   27.03
   1 -17  -5  302.69   23.96
  -1 -17   5  298.50   28.08
   3  17  -5  175.93   22.94
  -3 -17  -5  187.28   26.00
  -3  17   5  214.56   21.06
  -3 -17   5  218.16   30.60
   3  17   5  239.39   34.20
   3 -17  -5  198.56   15.59
  -3  17  -5  203.52   25.93
   3  17   5  234.86   28.65
  -5  17   5  157.73   20.15
   5  17  -5  167.52   22.31
  -5 -17  -5  129.85   37.64
   5  17   5  177.46   26.15
  -5 -17   5  192.26   26.22
  -5  17  -5  135.45   22.23
   5  17   5  202.17   32.86
  -5 -17   5  139.80   26.54
  -7  17   5   62.30   12.68
   7  17  -5   55.21   10.69
   7 -17   5   53.58   15.09
   7  17  -5   70.57   13.96
  -7  17  -5   52.19   14.54
   7  17   5   69.40   20.59
   7  17   5   49.08   15.06
   9  17  -5   46.88   11.97
  -9  17   5   42.52   11.56
   9 -17   5   64.13   18.04
   9  17   5   23.45   18.09
   9  17   5   42.49   14.87
  -9  17  -5   65.20   17.13
   0 -18  -5  131.54   18.96
   0  18   5  118.10   21.28
   0  18  -5  136.92   21.08
   0 -18   5   82.35   18.21
   2  18  -5  123.64   19.18
  -2 -18  -5   96.77   18.57
  -2  18   5  108.36   19.32
   2 -18  -5  128.38   15.89
  -2  18  -5  131.16   20.53
   2  18   5   88.45   20.51
  -2 -18   5   99.84   20.82
   2  18   5  127.27   20.15
  -4  18   5   88.70   15.42
   4  18  -5   56.44   13.48
  -4  18  -5   64.47   15.59
   4  18   5   38.48   12.98
  -4 -18   5   78.23   18.94
   4 -18  -5   78.68    7.79
   4  18   5   61.54   17.86
  -4 -18   5   72.53   16.43
   6  18  -5   55.53   13.43
   6 -18   5   36.26   12.94
  -6  18   5   44.41   11.18
   6  18   5   36.81   17.27
  -6  18  -5   39.75   13.83
   6  18   5   45.08   14.27
   8 -18   5   24.00   12.76
  -8  18   5   10.92    7.59
   8  18  -5   37.42   11.35
   8  18  -5   24.56    8.51
  -8  18  -5   20.28   11.29
   8  18   5   50.94   15.88
   8  18   5   10.69   12.85
  10 -18   5    9.71   10.29
  10  18  -5    0.96    5.97
 -10  18   5    2.94    7.59
  10  18  -5   -1.48    5.64
 -10  18  -5   28.02   12.96
  10  18   5   14.38   15.82
  10  18   5    1.39    8.49
   1  19  -5  146.34   21.95
  -1 -19  -5  111.09   18.64
  -1  19   5  100.81   19.05
  -1 -19   5   79.73   18.67
   1  19   5  121.54   22.96
  -1  19  -5  123.62   20.00
   1 -19  -5  140.63   19.19
  -3 -19  -5  129.06   21.52
  -3  19   5   90.71   17.93
   3  19  -5  112.14   18.90
  -3  19  -5  115.06   20.28
   3  19   5  134.20   24.76
   3 -19  -5   76.45   11.62
   3  19   5   77.78   16.86
  -3 -19   5   71.65   18.56
  -5  19   5  123.99   18.97
   5  19  -5  112.22   18.84
  -5  19  -5  146.02   22.69
   5  19   5  115.86   27.54
   5  19   5   98.62   20.62
   7 -19   5   30.31   13.77
  -7  19   5   48.76   11.89
   7  19  -5   54.81   13.96
   7  19   5   79.39   19.43
   7  19   5   17.52   14.34
  -7  19  -5   37.67   12.68
  -9  19   5   30.79   10.67
   9  19  -5   31.63   11.57
   9 -19   5   80.27   19.96
  -9  19  -5   14.96   11.58
   9  19   5   14.19   15.95
   9  19   5   27.62   14.91
   0 -20  -5   12.23    7.77
   0  20  -5   29.68   10.68
   0  20   5   29.25   13.66
  -2  20   5    7.46    8.96
   2  20  -5   40.45   13.45
  -2 -20  -5   29.71   10.91
   2  20   5   21.83    9.97
  -2  20  -5   12.18    9.07
   2 -20  -5   26.33    7.83
  -2 -20   5    6.60    7.70
   2  20   5   15.40   11.61
  -4  20   5   54.09   12.96
   4  20  -5   30.59   11.71
   4  20   5   44.03   13.56
   4  20   5   26.23   15.58
   4 -20  -5   37.09    7.29
  -4  20  -5   51.29   14.14
   6  20  -5   39.61   12.78
   6 -20   5   13.34   10.09
  -6  20   5   37.84   10.58
   6  20   5   22.29   11.53
   6  20   5   25.39   16.50
  -6  20  -5   10.86    9.51
  -8  20   5   22.98    9.57
   8 -20   5   16.44   11.00
   8  20  -5   10.09    9.56
   8  20   5   22.70   16.82
   8  20   5   20.60   12.96
  -8  20  -5    4.91    8.70
  -1  21   5  106.24   20.79
  -1 -21  -5   84.64   17.87
   1  21  -5   97.09   18.51
   1 -21  -5  102.25   16.32
  -1  21  -5  106.95   19.29
   1  21   5  159.58   26.18
  -3  21   5   77.31   16.71
   3  21  -5   65.63   15.81
  -3  21  -5   48.32   14.23
   3  21   5   34.04   15.05
   3 -21  -5   60.48   11.20
   3  21   5   66.84   16.35
   5  21  -5   70.89   16.78
  -5  21   5   81.03   16.39
   5  21   5   98.07   23.52
   5  21   5   78.09   18.36
  -5  21  -5  109.06   21.70
  -7  21   5   64.02   14.58
   7 -21   5   42.33   13.90
   7  21  -5   54.67   14.02
   7  21   5   66.27   21.97
  -7  21  -5   60.26   16.58
   7  21   5   27.38   14.19
   0 -22  -5   45.16   12.00
   0  22  -5   48.28   14.34
   0  22   5   60.06   16.42
  -2  22   5   26.51   12.15
   2  22  -5   74.11   16.55
   2  22   5   55.22   16.73
   2 -22  -5   11.59    7.49
  -2  22  -5   31.57   11.20
   4  22  -5   16.26   10.74
  -4  22   5   37.14   11.45
  -4  22  -5   32.30   12.67
   4  22   5   35.29   12.60
   4  22   5   26.47   14.27
   6  22  -5   48.54   15.07
  -6  22   5   36.56   11.16
   6  22   5   27.61   14.24
  -6  22  -5   61.08   17.17
   6  22   5   10.44   12.50
  -8  22   5   13.24    9.40
   8  22  -5    2.63    8.66
   8 -22   5   12.59   10.30
  -8  22  -5   19.55   12.92
   8  22   5   -3.54   10.61
   8  22   5   19.67   14.46
  -1  23   5   80.50   19.07
   1  23  -5   81.63   17.99
  -1 -23  -5   96.60   18.95
   1 -23  -5   89.13   16.42
   1  23   5   92.30   20.79
  -1  23  -5   99.24   20.16
   3  23  -5   49.41   14.54
  -3  23   5   76.65   17.64
   3 -23  -5   65.66   11.91
  -3  23  -5   63.42   15.38
   3  23   5   57.82   18.44
   5  23  -5   63.96   16.31
  -5  23   5   65.43   15.31
   5  23   5   57.61   20.39
   5  23   5   96.44   20.66
  -5  23  -5   64.07   16.43
   7 -23   5   30.48   13.11
   7  23  -5   -2.94    8.00
  -7  23   5   37.66   12.24
  -7  23  -5   48.15   15.43
   7  23   5   20.11   17.08
   7  23   5   18.00   13.26
   0  24  -5   64.77   17.59
   0  24   5  108.30   22.96
   0 -24  -5   73.30   16.06
   2  24  -5   50.46   14.94
  -2  24   5   73.34   17.00
  -2  24  -5   33.25   12.05
   2  24   5   98.01   22.51
   2 -24  -5   21.70    8.99
   4  24  -5   30.59   12.42
  -4  24   5   21.17   11.11
   4  24   5    5.22   12.08
  -4  24  -5   36.76   13.85
  -6  24   5   21.64   11.51
   6  24  -5   27.17   13.70
   6  24   5    5.50   12.69
  -6  24  -5   13.67   12.69
   1  25  -5   80.43   19.03
  -1  25   5   45.54   15.20
  -1 -25  -5   44.03   16.79
  -1  25  -5   66.23   17.28
   1  25   5   91.28   22.50
   1 -25  -5   87.05   17.20
  -3  25   5   47.01   14.18
   3  25  -5   40.11   13.43
   3  25   5   36.06   17.40
  -3  25  -5   33.42   12.32
   5  25  -5   41.58   14.59
  -5  25   5   16.98   10.23
   5  25   5   18.92   15.77
  -5  25  -5   24.39   13.26
   0  26  -5   41.23   14.76
   0  26   5   57.91   18.52
  -2  26   5   26.06   13.12
   2  26  -5   60.53   16.55
   2  26   5   22.14   15.87
  -2  26  -5   18.56   12.58
   2 -26  -5   17.11    9.49
  -4  26   5   35.46   13.79
   4  26  -5    4.25   10.13
  -4  26  -5    1.85    8.30
   4  26   5    8.51   12.15
   4 -26  -5    1.42    3.90
   6  26  -5    6.17   10.55
  -6  26   5    3.80    9.01
   6  26   5    3.59   11.52
  -6  26  -5   12.39   10.91
  -1  27   5   12.15   13.05
   1  27  -5   45.18   14.93
   1  27   5   22.87   15.63
  -1  27  -5   58.15   16.47
   3  27  -5   37.02   16.10
  -3  27   5   38.90   12.99
  -3  27  -5   44.46   15.23
   3  27   5   11.65   14.18
  -5  27   5   23.82   13.07
   5  27  -5   29.93   12.99
   5  27   5   36.41   19.35
  -5  27  -5   19.72   12.59
   0  28  -5   18.00   11.86
   0  28   5   43.75   17.04
  -2  28   5   28.83   14.42
   2  28  -5   25.15   11.16
   2 -28  -5   -3.16    4.93
  -2  28  -5    5.97    9.26
   2  28   5   -8.90    9.32
   4  28  -5    8.89   10.73
  -4  28   5   -2.75    8.02
   4 -28  -5    1.92    5.09
  -4  28  -5   12.67   12.17
   4  28   5   -1.07   10.19
  -1  29   5    7.48   11.86
   1  29  -5   19.77   13.13
   1  29   5   19.51   15.81
  -1  29  -5   30.13   15.45
   3  29  -5   24.37   14.87
  -3  29   5   49.67   16.40
  -3  29  -5   15.06   13.05
   3  29   5   18.32   17.62
   3 -29  -5    0.79    5.31
   0  30   5    3.50   11.22
   0  30  -5   -3.34    9.48
   0   0   6  634.94   33.10
   0   0   6  659.87   38.68
  -2   0   6  555.91   27.31
   2   0   6  542.45   31.75
   2   0   6  596.41   37.53
  -4   0   6  580.76   30.82
   4   0   6  635.64   37.08
   4   0   6  621.39   41.50
   6   0   6  661.51   45.86
   6   0   6  636.14   40.66
  -6   0   6  606.59   34.23
   8   0   6  164.86   26.33
  -8   0   6  153.83   12.76
  10   0   6   86.93   20.45
 -10   0   6   64.38    9.70
  12   0   6   45.25   16.73
   1  -1   6  292.01   19.70
  -1   1   6  301.24   16.72
   1  -1   6  339.56   24.94
  -1   1   6  316.22   22.05
  -1  -1   6  323.43   18.18
   1   1   6  302.69   19.17
  -1  -1   6  362.37   23.52
   1   1   6  327.96   24.23
   3  -1   6  182.94   18.84
  -3   1   6  189.95    9.70
   3  -1   6  195.50   15.96
   3   1   6  206.44   19.49
  -3  -1   6  180.33   11.68
   3   1   6  160.73   14.84
  -5   1   6  262.92   16.76
  -5   1   6  237.29   17.49
   5  -1   6  253.82   24.79
   5  -1   6  265.88   21.64
  -5  -1  -6  230.99   23.65
   5   1   6  306.49   26.49
  -5  -1   6  252.98   19.04
   5   1   6  251.12   21.17
  -5  -1   6  246.53   18.24
  -7  -1  -6  232.69   33.92
  -7   1   6  274.13   17.05
   7  -1   6  163.94   29.45
   7  -1   6  306.81   29.02
  -7  -1   6  275.26   19.52
   7   1   6  308.24   24.97
   7   1   6  266.42   27.12
   9  -1   6   25.21   11.13
  -9   1   6   29.02    5.30
   9   1   6   37.33   13.92
  -9  -1   6   31.38    6.97
  11  -1   6   15.78   11.76
 -11  -1   6   22.26    6.79
  11   1   6   35.73   16.45
   0  -2   6  619.82   32.48
   0   2   6  607.23   36.23
   0  -2   6  583.50   36.93
   0   2   6  593.18   30.34
   2  -2   6  456.37   29.00
   2  -2   6  517.27   34.51
  -2   2   6  504.35   28.90
  -2  -2   6  491.33   25.94
   2   2   6  505.08   28.40
   2   2   6  445.12   32.28
  -4   2   6  358.57   17.87
  -4   2   6  369.00   21.13
  -4  -2  -6  324.76   27.82
  -4   2   6  377.14   17.35
   4  -2   6  340.90   25.09
   4  -2   6  362.52   29.61
  -4  -2   6  335.50   21.85
  -4   2  -6  380.70   23.94
   4   2   6  334.59   28.40
   4   2   6  377.04   25.22
   6  -2   6  441.44   31.14
  -6   2   6  455.15   23.38
   6  -2   6  417.01   34.93
  -6   2   6  412.50   22.20
  -6   2  -6  421.24   29.01
  -6  -2   6  396.76   26.55
  -6  -2   6  358.69   28.77
   6   2   6  378.25   33.06
   6   2   6  436.58   30.48
  -8   2   6  164.22    9.64
   8  -2   6  160.86   26.15
   8   2   6  216.58   31.19
  -8  -2   6  180.84   15.87
  10  -2   6   74.39   19.20
  10   2   6   51.90   15.65
 -10  -2   6   73.55   12.59
  12  -2   6    4.85    9.77
  12   2   6   39.58   15.86
   1  -3   6   93.63   15.56
  -1   3   6   95.68   12.10
   1  -3   6   80.15   11.11
   1   3   6   90.19   13.82
  -1  -3   6   85.15    8.33
  -1   3  -6   83.63    7.15
   1   3   6   71.64    7.56
   3  -3   6  187.64   22.83
   3  -3   6  141.09   14.32
  -3  -3  -6  178.86   22.09
  -3   3   6  166.89   12.35
   3   3   6  167.83   21.55
   3   3   6  173.94   14.46
  -3  -3   6  164.84   12.43
  -3   3  -6  148.80   12.92
   5  -3   6  171.94   16.52
  -5   3   6  142.66    9.14
  -5   3   6  145.70    9.12
  -5  -3  -6  151.10   22.62
  -5   3   6  136.33    9.00
   5  -3   6  164.76   23.20
  -5  -3   6  135.98   14.18
   5   3   6  125.75   20.36
  -5  -3   6  123.20   15.90
   5   3   6  149.75   15.25
  -5   3  -6  122.64   13.26
  -7   3   6  137.34   11.43
   7  -3   6  153.81   24.33
   7   3   6  157.64   21.25
  -7  -3   6  119.71   15.95
  -7   3  -6  148.20   18.93
   7   3   6  112.23   20.98
   9  -3   6   16.10   11.01
  -9   3   6   23.32    6.61
  -9  -3   6   22.82    7.38
   9   3   6   12.21    9.72
  -9   3  -6   24.81    9.27
  11  -3   6   30.25   13.94
  11   3   6   30.80   13.37
 -11  -3   6   29.80    9.05
   0   4  -6  406.61   20.43
   0  -4   6  402.60   24.60
   0   4   6  400.71   26.73
   2  -4   6  516.01   32.34
  -2  -4  -6  549.35   35.70
   2  -4   6  511.27   36.34
  -2   4   6  526.35   30.36
  -2   4  -6  572.14   30.28
   2   4   6  529.09   30.31
   2   4   6  584.94   36.38
  -2  -4   6  564.58   30.35
   4  -4   6  321.17   25.53
  -4   4   6  358.37   19.26
  -4  -4  -6  385.88   29.82
   4  -4   6  349.07   29.57
  -4   4  -6  370.76   24.59
   4   4   6  408.26   25.59
  -4  -4   6  343.90   23.79
   4   4   6  366.98   29.28
  -6   4   6  264.05   16.06
   6  -4   6  283.61   27.43
   6  -4   6  277.26   23.42
  -6  -4   6  244.43   20.38
  -6   4  -6  258.52   21.62
  -6  -4   6  230.08   23.07
   6   4   6  296.63   23.48
   6   4   6  258.83   26.29
  -8   4   6  125.24   12.00
   8  -4   6  136.01   24.95
   8   4   6  102.16   20.76
  -8  -4   6  134.60   17.85
  -8   4  -6  147.08   20.70
 -10   4   6   84.86   13.26
  10  -4   6   72.04   18.11
 -10  -4   6   60.30   12.47
  10   4   6   78.89   19.34
 -10   4  -6   59.38   14.11
   1  -5   6  323.97   21.96
  -1  -5  -6  294.76   23.25
  -1   5   6  336.61   21.69
  -1   5  -6  344.16   19.38
   1   5   6  289.37   23.10
  -1  -5   6  291.86   20.23
  -3  -5  -6  194.42   19.19
   3  -5   6  167.34   15.98
  -3   5   6  183.56   12.29
   3  -5   6  198.88   24.82
   3   5   6  154.73   13.98
   3   5   6  178.93   22.23
  -3   5  -6  189.04   15.02
  -3  -5   6  188.03   14.95
   5  -5   6   79.37   15.85
  -5  -5  -6   79.57   15.79
   5  -5   6   75.60   13.87
  -5   5   6   72.99    5.82
   5   5   6   55.95   14.00
   5   5   6   67.91   12.18
  -5  -5   6   78.39   14.18
  -5  -5   6   60.08   11.50
  -5   5  -6   61.43   11.68
   7  -5   6   99.09   19.44
  -7   5   6  106.12   10.15
   7   5   6  132.14   23.40
  -7  -5   6  103.11   16.16
  -7   5  -6  136.88   18.88
   7   5   6  107.74   17.81
   9  -5   6   37.87   13.18
  -9   5   6   35.60    8.04
   9   5   6   28.00   12.33
  -9  -5   6   29.78    9.65
  -9   5  -6   25.59    8.69
  11  -5   6   19.77   12.72
 -11  -5   6   27.50   10.20
  11   5   6   18.14   13.22
   0   6   6  512.39   31.94
   0  -6   6  537.06   31.14
   0  -6  -6  528.38   32.00
   0   6  -6  500.45   27.30
  -2  -6  -6  726.44   44.41
  -2   6   6  709.73   37.93
   2  -6   6  656.52   40.90
   2  -6   6  748.06   46.36
   2   6   6  711.18   43.92
  -2   6  -6  807.91   39.99
   2   6   6  743.06   38.70
  -2  -6   6  680.15   39.47
   4  -6   6  390.56   32.53
   4  -6   6  395.06   29.35
  -4  -6  -6  436.03   33.29
   4   6   6  454.70   33.27
  -4   6  -6  454.25   28.36
  -4  -6   6  413.66   28.36
   4   6   6  401.26   27.10
   6  -6   6  193.47   27.80
   6  -6   6  189.55   20.16
  -6   6   6  227.05   14.46
   6   6   6  219.63   28.87
  -6  -6   6  195.41   25.54
  -6  -6   6  245.94   20.87
  -6   6  -6  240.80   20.60
   6   6   6  213.26   19.93
   8  -6   6  100.54   20.63
  -8   6   6  121.71   11.47
  -8   6  -6   71.68   15.03
   8   6   6   75.24   18.39
  -8  -6   6  108.58   17.67
  10  -6   6   80.38   19.63
 -10   6   6   73.57   12.84
  10   6   6   77.52   19.81
 -10   6  -6   88.16   17.71
 -10  -6   6   65.89   14.54
   1   7  -6  285.17   16.82
   1  -7   6  263.20   21.00
  -1  -7  -6  291.94   22.63
  -1   7   6  298.23   20.14
  -1   7  -6  295.81   19.20
  -1  -7   6  295.96   20.90
   1   7   6  274.15   21.99
   3  -7   6  308.75   27.62
  -3  -7  -6  270.01   25.30
  -3   7   6  363.82   18.76
   3  -7   6  357.80   25.53
  -3  -7   6  376.47   24.58
  -3   7  -6  325.42   23.13
   3   7   6  347.94   27.84
   3   7   6  309.68   22.15
   5  -7   6  140.56   22.45
  -5  -7  -6  147.51   22.34
   5  -7   6  107.47   17.57
  -5   7   6  104.68    8.15
   5   7   6  132.32   17.75
  -5  -7   6  147.58   21.13
  -5   7  -6  100.53   15.67
  -5  -7   6  131.66   18.62
   5   7   6  148.19   22.17
  -7   7   6  106.33   10.27
   7  -7   6  126.68   22.13
  -7  -7   6   89.52   18.95
  -7  -7   6  117.65   17.38
   7   7   6  148.65   22.97
   7   7   6  116.54   18.23
  -7   7  -6  115.71   18.35
   9  -7   6   52.67   15.75
  -9   7   6   36.99    8.36
  -9   7  -6   47.35   13.21
  -9  -7   6   44.69   12.50
   9   7   6   52.70   16.35
  11  -7   6   37.01   14.78
 -11   7   6   30.49    9.17
 -11   7  -6   21.47    9.66
 -11  -7   6   19.34   11.09
  11   7   6   18.41   12.61
   0  -8   6  232.93   19.59
   0   8   6  295.58   20.91
   0   8  -6  249.38   17.30
   0  -8  -6  262.88   19.94
   2  -8   6  532.29   34.25
   2   8  -6  519.88   27.60
  -2   8   6  555.10   29.81
  -2  -8  -6  525.70   35.74
  -2  -8   6  556.36   33.62
   2   8   6  542.61   35.96
  -2   8  -6  502.32   31.62
   4  -8   6  301.21   28.08
   4  -8   6  277.44   24.68
  -4  -8  -6  358.19   29.32
  -4   8   6  344.26   18.07
   4   8   6  338.08   28.30
  -4  -8   6  295.64   25.07
  -4   8  -6  351.10   24.78
   4   8   6  326.08   23.48
   6  -8   6  167.48   25.95
  -6  -8  -6  243.55   24.36
  -6   8   6  162.88   12.86
   6   8   6  146.68   24.52
  -6  -8   6  207.77   19.96
  -6  -8   6  183.52   26.43
   6   8   6  194.59   18.60
  -6   8  -6  200.97   19.28
  -8   8   6  155.16   13.86
   8  -8   6  156.84   26.19
  -8  -8   6  151.16   21.47
  -8   8  -6  158.64   22.68
   8   8   6  108.57   23.85
  10  -8   6  119.03   24.35
 -10   8   6   97.62   14.89
 -10   8  -6   74.67   16.40
 -10  -8   6   89.33   17.09
  10   8   6   74.46   19.57
   1  -9   6   48.83   10.42
  -1  -9  -6   53.69   11.30
  -1   9   6   44.09    8.60
   1   9  -6   53.07    8.26
   1   9   6   42.76   10.21
  -1   9  -6   62.47   10.54
  -1  -9   6   48.71   10.28
   1  -9  -6   45.57    8.38
   3  -9   6  314.85   24.67
   3   9  -6  332.09   18.35
  -3  -9  -6  277.86   25.48
  -3   9   6  287.60   18.37
   3   9   6  350.16   27.34
  -3  -9   6  292.96   24.00
  -3   9  -6  287.96   22.44
   5  -9   6  141.55   22.19
   5   9  -6  144.77    9.40
   5  -9   6  162.46   22.27
  -5   9   6  147.54   10.98
  -5  -9  -6  154.47   23.83
  -5  -9   6  146.67   21.81
   5   9   6  126.79   21.14
  -5  -9   6  147.21   21.04
   5   9   6  149.55   14.93
  -5   9  -6  160.44   16.66
   7  -9   6  100.70   20.67
  -7   9   6  123.10   11.63
  -7   9  -6  128.42   20.37
   7   9   6  134.88   23.27
   7   9   6  109.58   19.81
  -7  -9   6  130.73   19.56
  -7  -9   6   96.60   21.17
   9  -9   6   32.49   14.01
  -9   9   6   60.63   10.60
   9   9   6   49.95   15.69
  -9   9  -6   65.45   14.53
  -9  -9   6   73.99   15.94
  11  -9   6   32.25   15.33
 -11   9   6   11.29    7.67
 -11   9  -6   23.99    9.98
  11   9   6   -2.22    8.99
   0  10  -6   72.04   11.00
   0 -10   6   80.69   13.43
   0  10   6   73.12   12.14
   0 -10  -6  110.87   15.06
   2  10  -6  338.86   22.24
  -2  10   6  380.27   22.41
   2 -10   6  339.87   26.66
  -2 -10  -6  400.14   29.24
  -2  10  -6  332.97   24.94
  -2 -10   6  361.44   26.77
   2  10   6  421.96   29.63
   4 -10   6  392.83   29.78
  -4  10   6  401.26   23.24
  -4 -10  -6  387.71   31.95
   4  10  -6  385.07   22.58
   4 -10   6  406.22   33.71
  -4 -10   6  401.64   31.11
  -4  10  -6  393.73   28.62
   4  10   6  437.40   33.28
   4  10   6  385.87   26.84
   6  10  -6  262.35   14.32
   6  10  -6  248.15   13.84
   6 -10   6  163.12   26.36
  -6  10   6  247.10   17.04
  -6 -10   6  265.93   33.83
   6  10   6  276.73   27.67
   6  10   6  251.16   21.77
  -6  10  -6  239.46   22.79
  -6 -10   6  257.30   23.25
  -8  10   6  147.76   14.25
   8 -10   6  140.47   24.14
  -8 -10   6  150.88   22.78
  -8  10  -6  171.62   24.20
   8  10   6  151.40   26.36
  10 -10   6   34.97   15.54
 -10  10   6   46.09   11.38
 -10 -10   6   46.67   13.50
  10  10   6   58.16   18.35
 -10  10  -6   51.80   14.55
   1 -11   6   45.18   10.24
   1  11  -6   30.63    7.52
  -1 -11  -6   46.03   10.61
  -1  11   6   49.57    9.09
  -1  11  -6   71.83   11.86
  -1 -11   6   66.15   12.80
   1  11   6   47.86   10.58
   1 -11  -6   53.75    9.56
  -3  11   6  161.74   14.74
  -3 -11  -6  196.50   20.11
   3  11  -6  194.67   14.99
   3 -11   6  216.06   20.09
   3  11   6  154.69   22.00
  -3 -11   6  190.82   19.87
  -3  11  -6  189.90   18.02
  -5  11   6   85.01    9.22
   5 -11   6   80.48   17.78
  -5 -11  -6  122.04   21.10
   5  11  -6   87.71    8.26
   5  11  -6  110.82    9.95
  -5  11  -6  102.15   16.37
  -5 -11   6   95.16   16.72
   5  11   6   91.58   18.24
  -5 -11   6   99.89   19.54
   5  11   6   96.12   15.10
  -7  11   6  127.05   12.13
   7  11  -6  113.40    8.62
   7 -11   6  116.31   22.65
   7  11  -6  115.86    8.92
  -7 -11   6  112.87   19.32
  -7  11  -6  100.47   17.96
  -7 -11   6  109.53   23.84
   7  11   6  140.68   23.51
   9 -11   6   49.30   14.70
  -9  11   6   44.73    9.72
  -9  11  -6   35.96   11.29
  -9 -11   6   28.60   12.07
   9  11   6   15.89   11.64
 -11  11   6    5.18    6.48
  11 -11   6    5.41    9.14
  11  11   6   15.21   13.31
 -11  11  -6   -1.90    7.89
   0  12   6  150.14   15.28
   0 -12  -6  174.31   16.00
   0 -12   6  184.74   22.99
   0  12  -6  141.73   14.39
  -2  12   6  387.23   23.80
   2  12  -6  414.90   25.91
   2 -12   6  389.96   29.48
  -2 -12  -6  424.60   30.82
  -2  12   6  335.87   25.74
  -2  12  -6  383.97   28.08
   2 -12  -6  387.56   23.87
  -2 -12   6  341.84   28.47
   2  12   6  411.16   30.06
   4 -12   6  298.01   26.33
   4 -12   6  264.76   27.21
  -4 -12  -6  244.10   30.35
  -4  12   6  282.50   19.77
   4  12  -6  320.06   20.78
  -4 -12   6  252.89   25.86
  -4  12  -6  314.12   24.82
   4  12   6  261.93   25.98
   6  12  -6  175.96   13.79
   6  12  -6  172.73   12.76
  -6  12   6  188.26   14.83
   6 -12   6  173.37   26.80
  -6 -12  -6  158.23   30.22
   6  12   6  163.29   21.87
  -6 -12   6  238.24   33.59
   6  12   6  173.89   26.35
  -6 -12   6  134.95   21.40
  -6  12  -6  139.66   21.32
   8 -12   6   80.62   19.53
  -8  12   6   84.41   13.47
  -8 -12   6   78.23   17.75
  -8  12  -6  106.82   19.08
   8  12   6  100.05   20.92
  10 -12   6   33.00   15.22
 -10  12   6   57.63   12.39
  10  12   6   37.60   14.28
 -10  12  -6   61.87   15.26
  -1 -13  -6   83.86   14.45
  -1  13   6   73.59   14.26
   1 -13   6   98.81   17.78
  -1  13   6   70.17   11.56
   1  13  -6  104.90   14.72
  -1 -13   6   99.69   16.65
   1  13   6   78.93   14.30
  -1  13  -6   69.38   12.92
   1 -13  -6   85.96   12.92
   3  13  -6  167.70   15.36
   3 -13   6  143.22   21.07
  -3 -13  -6  192.48   25.36
  -3  13   6  190.84   16.70
  -3  13  -6  157.51   20.41
  -3 -13   6  145.41   23.13
   3  13   6  178.21   24.05
  -5 -13  -6   55.85   16.59
  -5  13   6   80.26   11.38
   5  13  -6   49.45   10.03
   5 -13   6   39.25   12.81
  -5 -13   6   62.97   16.53
  -5 -13   6   52.68   13.79
  -5  13  -6   62.38   14.18
   5  13   6   48.69   13.97
   7  13  -6   55.78    8.92
   7  13  -6   47.62    7.71
   7 -13   6   45.31   13.73
  -7  13   6   55.24   10.21
  -7  13  -6   74.50   16.22
   7  13   6   43.52   13.48
  -7 -13   6   48.50   16.55
  -7 -13   6   60.23   15.17
  -9  13   6   32.22    9.18
   9 -13   6   27.70   11.53
   9  13   6   23.54   13.16
  -9  13  -6   29.91   11.15
   0  14   6  148.82   22.45
   0  14  -6  167.67   16.24
   0  14   6  165.93   20.13
   0 -14  -6  171.52   16.80
   0 -14   6  144.43   21.84
   2  14  -6  291.81   22.10
   2 -14   6  285.22   24.69
  -2 -14  -6  256.17   24.69
  -2  14   6  280.85   23.14
   2  14   6  230.05   22.94
   2 -14  -6  299.31   19.72
  -2  14  -6  242.65   22.27
  -2 -14   6  246.52   24.35
   4  14  -6  177.43   16.57
  -4  14   6  183.25   16.29
  -4 -14  -6  171.46   25.11
  -4  14  -6  135.87   20.84
   4  14   6  166.71   24.16
  -4 -14   6  176.58   27.06
   6  14  -6   85.68   13.00
   6 -14   6   66.23   16.24
  -6  14   6   86.13   12.57
   6  14  -6   95.71    9.99
  -6  14  -6   76.26   15.92
  -6 -14   6  121.60   24.28
   6  14   6   79.71   17.09
  -6 -14   6   91.06   18.02
  -8  14   6   77.36   12.79
   8 -14   6   56.46   15.71
   8  14  -6   37.90    8.21
   8  14   6   72.05   19.00
  -8  14  -6   87.82   18.55
 -10  14   6   40.71   11.26
  10 -14   6   42.27   14.22
 -10  14  -6   56.15   15.10
  10  14   6   21.51   13.80
  10  14   6   37.99   18.34
  -1  15   6  106.57   15.25
  -1  15   6  131.98   20.19
  -1 -15  -6  121.19   18.92
   1  15  -6  140.55   18.59
   1  15   6  146.32   20.39
   1 -15  -6  145.15   14.33
  -1  15  -6  124.63   17.98
  -1 -15   6  143.49   21.93
   1  15   6  124.16   21.30
  -3 -15  -6  171.35   23.99
   3 -15   6  183.79   25.82
   3  15  -6  150.98   19.33
  -3  15   6  162.46   16.88
   3  15   6  156.62   23.12
   3 -15  -6  157.36   12.18
  -3 -15   6  170.71   25.89
  -3  15  -6  183.16   22.99
   5 -15   6   44.41   14.12
   5  15  -6   53.17   10.33
  -5  15   6   63.65   11.53
   5  15   6   62.84   15.09
  -5 -15   6   56.85   15.90
  -5 -15   6   53.97   14.44
  -5  15  -6   69.02   15.70
  -7  15   6   55.81   10.36
   7 -15   6   41.50   13.72
   7  15  -6   44.79    8.15
   7  15  -6   55.64   10.99
  -7  15  -6   30.15   11.24
   7  15   6   53.92   15.49
  -9  15   6   27.40    8.96
   9 -15   6    3.65    8.73
  -9  15  -6   23.69   12.16
   9  15   6   26.01   18.24
   9  15   6   21.80   12.48
   0  16  -6  185.94   19.19
   0  16   6  128.69   21.59
   0 -16  -6  174.99   17.87
   0 -16   6  216.07   21.58
   0  16   6  156.01   20.13
  -2 -16  -6  235.18   24.15
   2 -16   6  242.98   24.10
  -2  16   6  247.86   23.10
   2  16  -6  220.44   20.43
  -2 -16   6  255.22   25.04
   2 -16  -6  227.76   18.17
   2  16   6  180.50   29.24
   2  16   6  286.62   24.84
  -2  16  -6  227.01   22.29
  -4  16   6  180.76   17.27
   4  16  -6  147.86   19.00
  -4 -16  -6  161.68   25.22
  -4  16  -6  158.20   22.36
   4  16   6  148.03   22.64
  -4 -16   6  131.18   24.76
   4  16   6  135.68   26.82
   6 -16   6  110.45   21.37
   6  16  -6   82.26   13.95
   6  16  -6  118.76   12.11
  -6  16   6   84.04   13.15
   6  16   6   89.23   22.41
  -6  16  -6   74.02   17.21
   6  16   6  111.77   22.23
   8 -16   6   47.53   15.23
  -8  16   6   67.59   12.65
   8  16  -6   54.54   11.23
   8  16   6   26.26   16.97
  -8  16  -6   35.81   11.60
   8  16   6   65.59   18.10
 -10  16   6   31.60   10.78
  10 -16   6   46.82   16.95
 -10  16  -6   46.47   15.53
  10  16   6    6.79    9.78
  10  16   6   11.27   14.09
   1 -17   6  125.44   21.57
  -1 -17  -6  114.22   19.57
   1  17  -6  118.44   18.14
  -1  17   6  120.61   20.73
  -1  17  -6   97.04   17.76
   1 -17  -6  153.80   15.49
  -1 -17   6  139.04   23.69
   1  17   6  126.31   19.74
   1  17   6   96.52   20.91
  -3  17   6   85.58   15.43
   3  17  -6   94.36   16.14
  -3 -17  -6  106.27   19.29
  -3 -17   6  111.86   21.72
   3  17   6   86.01   17.20
   3  17   6   87.03   21.87
  -3  17  -6   97.36   17.95
   3 -17  -6   89.50   11.37
  -5  17   6   43.80   10.21
   5  17  -6   44.55   11.02
  -5  17  -6   61.42   14.32
   5  17   6   96.46   23.72
   5  17   6   38.61   13.49
   7 -17   6   21.04   11.97
   7  17  -6   56.12   11.56
   7  17  -6   48.96    9.78
  -7  17   6   49.59   11.24
   7  17   6   41.06   18.07
   7  17   6   46.55   15.13
  -7  17  -6   52.35   14.55
   9  17  -6   -0.31    3.47
   9  17  -6    0.98    4.43
   9 -17   6   -1.30    8.14
  -9  17   6   15.15    8.40
  -9  17  -6   29.60   12.52
   9  17   6    6.63   10.43
   9  17   6    7.16   13.44
   0 -18  -6  162.16   20.96
   0  18  -6  154.94   22.14
   0 -18   6  171.33   26.35
   0  18   6  125.88   22.25
   2  18  -6  139.52   20.96
  -2 -18  -6  165.26   24.29
  -2  18   6  182.79   24.48
   2 -18   6  122.04   21.83
   2 -18  -6  148.41   14.75
   2  18   6  144.66   22.04
  -2 -18   6  190.64   28.21
   2  18   6  120.79   23.16
  -2  18  -6  172.86   23.66
  -4  18   6  104.12   16.54
  -4 -18  -6   97.80   23.37
   4  18  -6  100.83   16.90
   4  18   6  132.95   26.92
  -4  18  -6  108.89   20.14
   4  18   6  112.66   20.78
  -6  18   6  104.35   15.85
   6  18  -6  108.31   17.32
   6 -18   6  110.69   22.14
   6  18   6   75.87   19.66
  -6  18  -6  136.37   23.11
   6  18   6   98.13   25.61
   8 -18   6   36.12   13.26
  -8  18   6   52.67   12.64
   8  18  -6   31.42    9.26
   8  18   6   37.12   20.30
  -8  18  -6   62.29   17.21
   8  18   6   46.23   16.36
   1  19  -6   39.42   12.04
  -1  19   6   38.39   12.83
  -1 -19  -6   16.38    9.31
   1  19   6   38.84   12.15
  -1 -19   6   22.33   11.66
   1 -19  -6   48.11   11.07
   1  19   6   22.44   12.08
  -1  19  -6   32.74   10.39
   3  19  -6   66.90   14.57
  -3  19   6   53.10   13.12
  -3  19  -6   58.26   14.11
   3  19   6   51.70   17.13
   3  19   6   35.75   11.92
   3 -19  -6   25.27    6.77
  -5  19   6   52.69   12.32
   5  19  -6   49.89   12.79
   5  19   6   73.43   20.61
   5  19   6   64.29   17.08
  -5  19  -6   35.54   12.35
  -7  19   6   17.74    8.69
   7  19  -6   23.40    9.01
   7 -19   6   25.93   13.20
   7  19  -6   27.57    8.77
   7  19   6   29.56   14.21
   7  19   6    7.07   13.26
  -7  19  -6    8.29    9.04
  -9  19   6   16.23    8.87
   9 -19   6    0.64    8.17
   9  19  -6    1.10    5.64
   9  19  -6   -0.07    4.02
   9  19   6   -2.76    8.10
   9  19   6    3.42   12.91
  -9  19  -6   -2.55    7.00
   0  20  -6   61.06   13.92
   0  20   6   46.98   14.95
   0 -20  -6   54.87   13.30
   2  20  -6   59.70   14.11
  -2  20   6   82.49   17.32
  -2 -20  -6   94.06   17.52
  -2  20  -6   45.61   13.05
   2  20   6   81.22   17.62
   2 -20  -6   84.73   14.34
   2  20   6   60.59   18.65
  -4  20   6   79.62   15.55
   4  20  -6   66.91   14.44
  -4  20  -6   78.89   17.86
   4  20   6   53.49   17.85
   4  20   6   55.97   14.96
  -6  20   6   61.53   14.08
   6 -20   6   65.91   17.43
   6  20  -6   73.44   14.52
  -6  20  -6   49.85   14.86
   6  20   6   56.45   19.65
   6  20   6   77.59   19.06
   8 -20   6   50.31   17.03
  -8  20   6   26.31   11.08
   8  20  -6   32.27   11.17
   8  20   6   36.36   13.15
  -8  20  -6   28.27   11.29
   8  20   6   24.34   17.32
  -1  21   6   42.83   13.18
  -1 -21  -6   34.90   11.70
   1  21  -6   25.21   11.19
  -1  21  -6   44.29   12.98
   1 -21  -6   20.24    8.27
   1  21   6   31.57   13.69
   3  21  -6   15.64   10.06
  -3  21   6   57.85   14.39
  -3  21  -6   29.67   11.09
   3  21   6   23.22   14.81
   3  21   6   24.57   12.57
   5  21  -6   49.00   12.13
  -5  21   6   37.33   11.18
   5  21   6   35.25   13.07
   5  21   6   33.67   16.72
  -5  21  -6   51.19   14.74
   7 -21   6   40.27   14.67
   7  21  -6   16.07   10.47
  -7  21   6   37.74   11.96
   7  21   6   25.77   17.28
   7  21   6   37.29   14.67
  -7  21  -6   36.31   12.95
   0 -22  -6   93.16   17.75
   0  22   6   74.91   19.02
   0  22  -6   77.87   16.65
  -2  22   6   76.50   17.19
   2  22  -6   79.37   16.44
  -2  22  -6   48.18   13.41
   2  22   6   99.18   22.43
   2 -22  -6   82.29   15.02
  -4  22   6   64.29   15.11
   4  22  -6   58.55   14.87
  -4  22  -6   69.91   17.67
   4  22   6   65.16   20.01
   4  22   6   54.77   15.36
   6 -22   6   68.05   18.28
  -6  22   6   74.93   16.02
   6  22  -6   58.65   14.49
   6  22   6   64.04   17.82
  -6  22  -6   58.44   16.10
   6  22   6   67.63   22.32
   1  23  -6   77.73   17.15
  -1  23   6   49.20   15.55
  -1 -23  -6   71.80   21.77
   1 -23  -6   64.55   13.77
   1  23   6   55.12   17.62
  -1  23  -6   53.31   14.54
   3  23  -6   42.04   13.08
  -3  23   6   45.86   13.63
   3  23   6   37.35   15.29
  -3  23  -6   19.30   11.14
   5  23  -6   35.74   12.05
  -5  23   6   40.67   12.18
   5  23   6   19.02   15.52
  -5  23  -6   58.50   16.62
   5  23   6   26.70   14.37
   7  23  -6   15.32   11.01
   7 -23   6   15.88   12.66
  -7  23   6   32.73   12.24
   7  23   6    0.12    8.98
   7  23   6   24.76   18.11
  -7  23  -6   19.72   12.53
   0 -24  -6   43.01   12.91
   0  24   6   74.06   19.09
   0  24  -6   63.58   16.63
  -2  24   6   78.32   19.26
   2  24  -6  111.42   21.46
   2  24   6   69.79   20.18
  -2  24  -6   69.25   17.53
  -4  24   6   21.81   11.68
   4  24  -6   45.90   14.00
   4  24   6   28.73   16.52
  -4  24  -6   15.10   11.47
  -6  24   6   36.50   11.92
   6  24  -6   35.15   12.53
   6 -24   6   76.50   19.81
   6  24   6   29.45   16.14
  -6  24  -6   16.54   11.96
   6  24   6   51.83   20.86
   1  25  -6   12.86   10.41
  -1  25   6   20.22   13.62
  -1  25  -6   40.98   14.50
   1 -25  -6   30.67   10.69
   1  25   6   38.69   16.07
   3  25  -6   16.67   11.63
  -3  25   6    9.15   10.40
  -3  25  -6    6.77    9.33
   3  25   6   10.94   13.67
   3 -25  -6   -0.21    3.68
   5  25  -6   17.01   12.00
  -5  25   6   14.81   10.72
   5  25   6   48.20   19.62
  -5  25  -6   16.39   13.03
   0  26  -6   39.79   14.12
   0  26   6   36.18   15.55
  -2  26   6   48.50   15.96
   2  26  -6   32.46   13.60
   2  26   6   25.18   16.04
  -2  26  -6   36.39   14.07
  -4  26   6   33.82   12.75
   4  26  -6   10.28   11.01
   4  26   6   -6.02    8.26
  -4  26  -6   11.56   10.06
   4 -26  -6   -0.79    3.01
   1  27  -6   12.03   10.84
  -1  27   6    1.80   10.23
   1  27   6   36.34   18.01
  -1  27  -6    8.90   10.55
  -3  27   6   24.48   13.62
   3  27  -6    0.84   10.01
  -3  27  -6   15.23   12.08
   3 -27  -6   -0.09    4.64
   3  27   6   38.37   19.03
   0  28   6   16.69   14.12
   0  28  -6   29.05   12.69
  -2  28   6    3.58    9.94
   2  28  -6   26.41   14.82
   2 -28  -6   -2.17    5.30
   2  28   6   19.76   15.32
  -2  28  -6   55.88   17.40
   0   0   7   46.25    7.33
   0   0   7   32.13    8.90
  -2   0   7  217.74   18.33
   2   0   7  249.38   18.12
  -2   0   7  232.13   13.98
   2   0   7  207.96   20.95
  -4   0   7  197.39   13.18
   4   0   7  201.52   17.89
   4   0   7  233.77   22.92
  -6   0   7  309.53   20.03
   6   0   7  288.12   29.15
   6   0   7  287.70   24.68
  -6   0   7  288.12   22.51
   8   0   7   56.59   16.38
  -8   0   7   66.93    9.07
  10   0   7   38.76   14.06
 -10   0   7   37.56    5.35
   1  -1   7  234.94   17.37
  -1   1   7  251.95   14.94
   1  -1   7  235.55   21.84
  -1   1   7  225.79   19.29
  -1  -1   7  241.52   20.26
   1   1   7  251.21   21.73
  -1  -1   7  234.22   15.67
   1   1   7  258.91   17.28
  -3   1   7  497.34   30.28
   3  -1   7  478.28   36.48
  -3   1   7  509.43   24.71
   3  -1   7  498.22   31.88
   3   1   7  509.28   31.56
  -3  -1   7  505.94   26.64
   3   1   7  488.64   36.34
  -5   1   7  248.09   17.41
   5  -1   7  233.37   29.93
   5  -1   7  263.58   22.75
  -5   1   7  274.37   18.07
  -5  -1   7  249.68   18.91
   5   1   7  270.40   22.51
   5   1   7  323.64   28.95
   7  -1   7  357.26   32.82
  -7   1   7  324.01   18.91
   7  -1   7  294.83   30.43
  -7  -1   7  315.71   21.63
   7   1   7  284.03   30.20
   7   1   7  303.22   27.50
   9  -1   7   41.01   13.91
   9   1   7   68.89   17.83
  -9  -1   7   74.38   10.58
  11  -1   7   20.21   12.94
 -11  -1   7   34.64    6.38
  11   1   7   34.33   16.27
   0   2   7  169.58   12.29
   0  -2   7  187.22   14.10
   0   2   7  176.48   16.84
   0  -2   7  174.37   17.97
  -2   2   7  216.45   17.53
   2  -2   7  214.86   17.71
   2  -2   7  230.14   22.29
  -2   2   7  236.80   12.32
  -2  -2   7  217.76   14.81
   2   2   7  239.39   21.93
   2   2   7  192.38   15.89
  -4   2   7   66.06    9.43
   4  -2   7   52.85   13.12
   4  -2   7   42.56   10.10
  -4   2   7   53.94    4.48
  -4  -2   7   56.81    8.86
   4   2   7   53.67   10.51
   4   2   7   51.18   12.80
   6  -2   7  140.01   24.22
  -6   2   7  157.05   10.83
  -6   2   7  148.78   10.77
   6  -2   7  194.20   24.44
  -6  -2   7  168.81   16.98
  -6  -2   7  167.42   15.17
   6   2   7  150.81   24.48
   6   2   7  163.81   22.01
   8  -2   7   50.52   15.60
   8   2   7   33.47   12.74
  -8  -2   7   46.71    9.05
  10  -2   7   41.98   14.07
 -10  -2   7   23.06    7.21
  10   2   7   16.22   11.05
  -1   3   7  474.88   24.83
   1  -3   7  489.19   35.12
   1  -3   7  502.85   30.06
  -1   3   7  495.10   31.24
  -1  -3   7  489.66   28.30
   1   3   7  534.98   34.52
   1   3   7  485.24   27.77
   3  -3   7  577.18   39.47
   3  -3   7  471.96   32.69
  -3   3   7  536.77   30.30
   3   3   7  528.18   37.40
   3   3   7  506.74   31.57
  -3  -3   7  516.31   29.24
   5  -3   7  113.16   21.28
  -5   3   7  136.13   10.39
  -5   3   7  137.57    9.79
  -5  -3  -7  155.91   23.70
   5  -3   7  117.36   18.11
  -5   3   7  125.96    8.17
  -5   3  -7  130.72   16.31
   5   3   7  133.27   18.25
  -5  -3   7  137.92   14.09
   5   3   7  154.87   23.68
   7  -3   7  178.80   28.14
  -7  -3   7  145.35   14.61
   7   3   7  151.61   25.31
   7   3   7  148.26   24.66
   9  -3   7   20.33   12.49
  -9  -3   7   47.95    9.84
   9   3   7   68.37   17.82
  11  -3   7   48.51   16.96
  11   3   7   59.65   17.19
 -11  -3   7   43.97    9.94
   0  -4   7  197.50   15.55
   0   4   7  189.18   12.62
   0   4   7  176.80   17.37
  -2   4   7  269.39   18.91
   2  -4   7  238.09   19.58
   2  -4   7  244.01   23.35
  -2   4  -7  263.57   16.89
   2   4   7  217.93   17.18
   2   4   7  269.15   23.00
  -2  -4   7  241.39   17.40
  -4  -4  -7   52.70   12.11
  -4   4   7   45.43    6.78
   4  -4   7   31.71   10.96
   4  -4   7   68.98   12.57
   4   4   7   36.86    8.83
  -4  -4   7   42.30    8.85
  -4   4  -7   45.29    9.15
   4   4   7   37.24   11.94
   6  -4   7  133.73   20.18
  -6   4   7  107.82    8.33
   6  -4   7   84.86   18.30
  -6  -4   7  117.39   15.33
  -6  -4   7  114.40   18.35
   6   4   7  100.02   16.51
  -6   4  -7   93.01   14.79
   6   4   7  108.25   20.18
   8  -4   7   21.67   11.79
  -8   4   7   27.28    6.36
   8   4   7   37.95   13.84
  -8   4  -7   36.25   11.05
  -8  -4   7   22.57    7.74
  10  -4   7   22.33   10.93
 -10  -4   7   35.68   10.12
  10   4   7   23.63   13.64
   1  -5   7  490.41   30.40
  -1   5   7  476.44   30.03
   1  -5   7  502.99   35.73
   1   5   7  452.47   26.58
  -1   5  -7  490.34   25.76
   1   5   7  535.78   33.53
  -1  -5   7  409.16   27.92
   3  -5   7  443.99   34.62
   3  -5   7  414.80   29.89
  -3   5   7  436.11   25.20
  -3  -5  -7  439.60   33.14
   3   5   7  428.33   27.46
   3   5   7  421.30   32.73
  -3  -5   7  426.47   27.11
  -3   5  -7  447.03   27.01
  -5   5   7   88.05    6.19
  -5  -5  -7  111.70   19.72
   5  -5   7  111.87   17.60
   5  -5   7  115.72   21.78
  -5  -5   7  113.32   16.37
   5   5   7  112.75   19.49
   5   5   7  123.15   17.00
  -5   5  -7  102.01   14.67
  -7   5   7  188.56   13.15
   7  -5   7  178.96   27.28
  -7   5  -7  160.56   21.12
  -7  -5   7  161.80   20.27
   7   5   7  172.79   27.66
  -7  -5   7  150.93   23.64
   9  -5   7   74.37   18.97
  -9   5   7   89.89   12.62
  -9  -5   7   77.39   14.62
   9   5   7   90.03   20.46
  -9   5  -7   81.49   15.95
  11  -5   7   19.80   14.23
 -11  -5   7   19.45    9.34
  11   5   7   51.59   18.70
   0  -6   7  118.26   15.36
   0   6   7  111.31   15.40
   0   6  -7  102.12    8.01
  -2   6   7  301.12   20.72
   2  -6   7  308.85   23.28
  -2  -6  -7  346.36   26.36
   2  -6   7  323.18   27.88
  -2   6  -7  295.09   20.08
   2   6   7  290.66   25.03
   2   6   7  316.81   20.62
  -2  -6   7  290.77   21.34
  -4   6   7  116.12    7.94
   4  -6   7  136.52   21.45
   4  -6   7  131.08   19.06
  -4  -6  -7  148.67   22.26
   4   6   7  136.92   17.33
   4   6   7  127.31   21.12
  -4  -6   7  130.09   16.91
  -4   6  -7  137.40   16.77
  -6   6   7  117.70    9.13
   6  -6   7  131.59   19.97
   6  -6   7  144.79   23.71
   6   6   7  121.94   21.57
  -6  -6   7  112.04   18.59
  -6   6  -7  124.03   17.37
   6   6   7  135.73   19.46
  -6  -6   7  156.38   19.98
  -8   6   7   37.66    7.29
   8  -6   7   50.55   15.59
   8   6   7   14.14   10.18
  -8   6  -7   32.87    9.90
  -8  -6   7   40.25   10.64
  10  -6   7   28.01   14.27
 -10   6   7   37.97    9.09
 -10   6  -7   30.67   10.91
  10   6   7   28.04   12.96
 -10  -6   7   18.86    9.68
   1   7  -7  351.13   17.32
   1  -7   7  330.61   24.29
  -1   7   7  315.08   23.14
  -1  -7  -7  326.75   26.03
  -1   7  -7  323.00   20.69
   1   7   7  333.37   25.95
  -1  -7   7  335.03   23.70
  -3  -7  -7  525.66   36.72
  -3   7   7  497.96   27.22
   3  -7   7  481.25   33.48
   3  -7   7  445.08   36.53
  -3   7  -7  496.64   30.74
  -3  -7   7  482.99   31.65
   3   7   7  520.88   31.08
   3   7   7  496.94   36.42
  -5   7   7  154.76    9.48
  -5  -7  -7  169.79   25.57
   5  -7   7  129.57   22.40
   5  -7   7  169.20   22.52
  -5  -7   7  162.95   22.11
  -5   7  -7  196.06   17.49
   5   7   7  148.27   19.84
   5   7   7  178.23   25.52
  -7   7   7  186.04   13.67
   7  -7   7  144.18   25.57
   7   7   7  260.71   35.09
  -7   7  -7  184.30   23.36
  -7  -7   7  183.58   27.86
  -7  -7   7  204.64   20.33
  -9   7   7   82.46   11.96
   9  -7   7   78.20   20.00
  -9  -7   7   52.33   13.06
  -9   7  -7   69.83   15.14
   9   7   7   40.19   14.30
  11  -7   7   82.66   21.76
 -11   7   7   42.22   10.63
  11   7   7   43.53   16.99
 -11   7  -7   42.36   13.45
   0  -8  -7  153.71   15.47
   0   8   7  158.15   15.69
   0   8  -7  155.23   12.13
   0  -8   7  157.29   15.55
  -2  -8  -7  264.73   23.75
  -2   8   7  252.28   18.38
   2  -8   7  262.96   21.71
   2   8   7  256.88   23.62
  -2   8  -7  274.81   19.65
  -2  -8   7  256.74   20.81
  -4  -8  -7   72.14   15.76
   4  -8   7   51.72   12.06
   4  -8   7   65.89   15.94
  -4   8   7   58.27    5.28
  -4  -8   7   67.06   13.17
   4   8   7   61.29   11.09
  -4   8  -7   62.61   11.88
   4   8   7   59.01   14.56
   6  -8   7  139.71   23.95
  -6   8   7  114.43    9.15
  -6  -8  -7   76.49   21.08
   6  -8   7  113.32   19.44
   6   8   7  105.45   20.23
  -6  -8   7  130.77   22.35
  -6  -8   7  114.97   17.90
   6   8   7   91.59   15.99
  -6   8  -7  114.52   17.71
   8  -8   7   42.43   14.44
  -8   8   7   74.42   10.55
  -8   8  -7   53.58   13.10
  -8  -8   7   47.20   12.39
   8   8   7   58.12   16.39
 -10   8   7   15.64    7.12
  10  -8   7    3.91    8.44
 -10  -8   7   13.81    9.37
 -10   8  -7    7.62    8.47
  10   8   7   23.34   14.11
   1   9  -7  228.50   15.32
  -1   9   7  244.81   18.77
   1  -9   7  210.70   19.15
  -1  -9  -7  219.84   20.58
  -1   9  -7  263.40   18.33
   1   9   7  226.61   20.89
  -1  -9   7  217.44   19.21
   3  -9   7  442.62   36.46
  -3  -9  -7  459.53   34.53
  -3   9   7  460.93   24.41
   3  -9   7  455.66   32.58
  -3  -9   7  420.53   31.01
   3   9   7  459.35   28.80
   3   9   7  398.64   33.26
  -3   9  -7  450.64   29.53
   5  -9   7  164.72   23.01
  -5   9   7  154.76   10.75
   5  -9   7  197.27   29.26
  -5  -9  -7  201.49   28.29
   5   9   7  121.83   21.67
  -5  -9   7  140.99   22.15
  -5   9  -7  164.70   17.01
   5   9   7  174.30   16.67
  -7   9   7  181.07   13.96
   7  -9   7  147.10   25.64
  -7   9  -7  199.13   25.26
  -7  -9   7  184.73   30.14
  -7  -9   7  183.23   24.37
   7   9   7  177.25   27.99
  -9   9   7   63.57   10.94
   9  -9   7   55.46   16.24
   9   9   7   64.87   18.65
  -9   9  -7   85.37   16.63
  -9  -9   7   77.44   16.70
   0  10   7    7.55    5.66
   0 -10  -7   32.07    8.33
   0 -10   7   13.12    6.74
   0  10  -7   30.16    6.80
  -2  10   7  153.21   13.43
   2 -10   7  171.90   17.11
  -2 -10  -7  144.86   21.01
   2  10  -7  152.33   11.55
  -2 -10   7  189.95   18.42
  -2  10  -7  154.22   15.07
   2  10   7  168.60   22.36
  -4 -10  -7   81.80   17.38
   4 -10   7  101.05   17.28
  -4  10   7   84.85    8.55
  -4 -10   7   98.64   17.28
   4  10   7   99.56   14.87
  -4  10  -7   99.61   16.11
   4  10   7   68.20   15.76
  -6  10   7  121.64   10.05
   6 -10   7   90.78   19.85
  -6 -10   7  123.95   22.75
   6  10   7  122.47   18.11
  -6 -10   7   81.14   15.82
   6  10   7  119.91   22.15
  -6  10  -7   88.50   16.42
   8 -10   7   34.45   13.38
  -8  10   7   35.32    7.98
  -8  10  -7   64.58   14.32
  -8 -10   7   29.86   11.30
   8  10   7   51.12   15.93
 -10  10   7   23.23    7.87
  10 -10   7   12.20   12.52
 -10  10  -7   10.84    8.62
  10  10   7   19.00   12.93
  -1  11   7  139.69   14.11
   1 -11   7  134.04   19.61
  -1 -11  -7  165.49   21.25
   1  11  -7  155.26   13.18
  -1  11  -7  143.77   14.37
  -1 -11   7  143.66   20.06
   1  11   7  132.13   18.93
   1 -11  -7  175.22   15.09
  -3  11   7  262.49   18.80
   3  11  -7  250.90   16.28
   3 -11   7  252.42   23.43
  -3 -11  -7  275.62   25.78
  -3 -11   7  247.23   22.99
   3  11   7  254.95   24.39
  -3  11  -7  281.62   22.20
  -5  11   7  103.97    9.33
   5 -11   7  110.31   18.76
   5 -11   7  147.81   25.65
   5  11   7   71.46   16.86
  -5 -11   7  117.63   20.49
  -5  11  -7   88.11   15.81
  -5 -11   7   97.09   17.12
   5  11   7  109.61   16.40
   7 -11   7  128.75   24.58
  -7  11   7  157.08   13.19
  -7 -11   7  190.26   26.01
   7  11   7  122.85   23.48
  -7  11  -7  115.42   20.18
  -7 -11   7  154.61   28.19
   9 -11   7   38.88   14.56
  -9  11   7   61.76   10.89
  -9  11  -7   72.34   16.83
  -9 -11   7   55.73   15.07
   9  11   7   55.44   16.37
   0 -12   7   30.02   10.33
   0 -12  -7   20.08    7.01
   0  12  -7   11.61    5.67
   0  12   7    8.39    5.92
  -2  12   7  138.95   17.38
  -2 -12  -7  149.78   21.80
   2 -12   7  137.79   20.45
  -2  12   7  136.83   12.37
   2  12  -7  140.60   12.65
  -2  12  -7  112.96   16.35
  -2 -12   7  167.29   21.94
   2  12   7  128.15   19.59
   4 -12   7   91.94   17.36
  -4  12   7   88.39   11.50
  -4 -12  -7   64.90   15.82
   4  12  -7   90.62    8.38
   4 -12   7   59.80   15.61
   4  12   7   73.75   16.42
  -4  12  -7   89.64   15.78
  -4 -12   7   79.69   16.62
  -6  12   7   83.53   10.77
   6 -12   7   71.77   17.45
  -6 -12   7   60.39   14.35
  -6 -12   7  102.70   21.93
  -6  12  -7   63.37   15.15
   6  12   7   71.49   17.35
   8 -12   7   31.46   12.71
  -8  12   7   26.84    7.31
   8  12   7   14.07   11.28
  -8 -12   7   39.94   12.32
  -8  12  -7   30.41   10.85
  10 -12   7   14.56   12.12
 -10  12   7   13.31    7.78
  10  12   7   20.80   13.17
 -10  12  -7   17.91    9.65
   1  13  -7  148.50   14.52
   1 -13   7  155.12   21.86
  -1 -13  -7  152.90   21.43
  -1  13   7  162.31   21.02
  -1  13   7  155.90   15.19
  -1 -13   7  148.98   21.34
   1 -13  -7  152.55   15.16
  -1  13  -7  152.81   16.06
   1  13   7  159.13   21.29
   3  13  -7  205.02   16.85
  -3  13   7  245.84   19.59
  -3 -13  -7  226.56   23.50
   3 -13   7  236.26   23.54
  -3  13  -7  236.26   21.00
  -3 -13   7  236.36   29.31
   3  13   7  234.18   29.07
   5  13  -7  103.52    9.08
  -5 -13  -7   62.42   16.02
  -5  13   7   85.07   11.15
   5  13  -7   82.08    7.98
   5 -13   7   95.08   19.84
  -5  13  -7   62.21   14.16
   5  13   7  100.17   16.98
  -5 -13   7  105.45   19.55
   5  13   7   76.35   17.51
  -5 -13   7   95.26   20.33
   7 -13   7  131.55   24.97
  -7  13   7   80.00   11.88
  -7 -13   7   73.79   16.57
  -7  13  -7   92.09   18.91
  -7 -13   7  103.89   25.91
   7  13   7   79.21   19.74
   9 -13   7   11.22   10.39
  -9  13   7   31.83    9.53
   9  13   7    7.17   10.21
  -9  13  -7   63.83   14.64
   0  14   7   86.96   14.04
   0  14   7   95.79   17.53
   0 -14  -7   80.08   14.08
   0 -14   7   68.56   14.80
   0  14  -7   66.42   12.27
  -2  14   7  134.83   12.93
   2  14  -7  156.86   14.56
  -2  14   7  140.12   19.12
   2 -14   7  136.69   21.58
  -2 -14  -7  150.66   22.57
   2  14   7  113.90   18.87
  -2 -14   7  107.90   19.72
   2 -14  -7  145.20   13.20
  -2  14  -7  135.92   19.53
   4  14  -7   26.91    6.64
  -4  14   7   31.16    8.32
   4 -14   7   44.07   14.32
  -4  14  -7   21.39    8.69
   4  14   7   27.21   10.59
  -4 -14   7   46.96   14.42
   6  14  -7   42.57    6.89
  -6  14   7   54.87    9.39
   6 -14   7   61.14   15.92
   6  14   7   47.89   14.06
  -6  14  -7   76.38   15.47
  -6 -14   7   61.65   18.29
  -6 -14   7   25.23    9.85
  -8  14   7   20.27    7.43
   8 -14   7   44.92   14.80
   8  14   7    5.70    8.76
  -8  14  -7   11.55    9.41
   1 -15   7  190.16   26.51
  -1 -15  -7  245.39   22.36
  -1  15   7  211.97   26.69
   1  15  -7  221.49   19.73
  -1  15   7  231.19   19.43
   1 -15  -7  199.25   18.45
   1  15   7  270.67   23.23
   1  15   7  186.36   27.90
  -1 -15   7  234.74   23.25
  -1  15  -7  192.12   19.52
  -3  15   7  188.21   19.05
   3 -15   7  245.65   24.91
   3  15  -7  222.38   18.84
  -3 -15  -7  200.87   27.92
  -3 -15   7  187.64   27.08
  -3  15  -7  212.86   21.46
   3  15   7  247.71   24.80
   5  15  -7   84.19   11.56
  -5  15   7   80.74   12.23
   5 -15   7   92.57   19.82
  -5  15  -7   88.90   16.59
  -5 -15   7   67.88   16.73
   5  15   7   94.88   19.64
  -5 -15   7   80.41   19.93
  -7  15   7   98.05   13.83
   7 -15   7   81.15   20.09
  -7  15  -7   74.71   16.89
   7  15   7   74.76   19.44
  -9  15   7   48.01   10.82
   9 -15   7   13.65   12.87
  -9  15  -7   29.69   12.45
   9  15   7   38.05   14.92
   0  16  -7   82.70   14.92
   0 -16   7   87.27   18.08
   0 -16  -7   84.49   15.99
   0  16   7  102.71   15.82
   0  16   7   96.89   19.05
   2 -16   7  140.57   22.82
  -2  16   7  168.24   22.41
   2  16  -7  131.33   17.36
  -2 -16  -7  124.61   21.55
  -2 -16   7  124.55   21.28
   2  16   7  102.97   21.54
   2  16   7  112.09   19.53
  -2  16  -7  143.01   20.02
   2 -16  -7  129.23   15.57
   4  16  -7   57.45   10.48
  -4  16   7   47.66   10.46
  -4 -16   7   80.48   18.63
   4  16   7   52.24   14.04
  -4  16  -7   40.10   11.23
  -6  16   7   44.05    9.74
   6 -16   7   45.99   15.35
   6  16  -7   50.80    9.87
  -6  16  -7   47.61   13.56
   6  16   7   55.32   15.85
  -8  16   7   12.49    7.25
   8  16  -7   -0.39    2.35
   8 -16   7   32.63   13.64
   8  16  -7    1.71    2.12
  -8  16  -7    7.20    8.23
   8  16   7   17.07   11.67
   8  16   7    2.54   13.02
  -1  17   7  198.75   25.54
  -1 -17  -7  195.13   25.33
   1 -17   7  128.83   22.24
   1  17  -7  136.99   19.23
   1 -17  -7  155.56   20.32
   1  17   7  189.01   23.93
  -1 -17   7  195.28   28.50
  -1  17  -7  166.81   22.07
   1  17   7  172.66   28.70
  -3  17   7  170.35   22.45
   3  17  -7  184.71   17.63
  -3 -17  -7  155.90   27.32
   3  17   7  131.64   25.99
   3  17   7  158.10   24.01
   3 -17  -7  142.97   12.22
  -3  17  -7  118.96   19.96
  -3 -17   7  149.08   26.27
   5  17  -7   77.28   13.19
  -5  17   7   74.00   12.53
   5 -17   7   54.82   15.76
   5  17   7   94.06   19.70
   5  17   7   23.87   15.24
  -5  17  -7   73.35   16.38
  -7  17   7   74.64   13.14
   7 -17   7   66.67   16.97
  -7  17  -7   53.59   15.38
   7  17   7   41.76   15.18
   7  17   7   65.52   20.94
   9 -17   7   28.86   13.19
  -9  17   7   36.44   10.95
   9  17   7   38.64   14.98
   9  17   7   16.33   16.58
  -9  17  -7   34.96   12.62
   0  18   7   65.56   13.12
   0 -18  -7   90.49   16.48
   0  18  -7   43.34   11.11
   0  18   7   52.55   14.85
  -2  18   7   95.52   17.92
   2  18  -7   84.74   15.15
  -2 -18  -7   82.91   17.19
   2  18   7   99.98   22.13
   2  18   7   84.30   17.49
  -2  18  -7   79.81   16.64
   2 -18  -7   90.59   13.48
   4  18  -7   48.96   11.77
  -4  18   7   48.81   11.51
   4  18   7   36.40   12.34
   4  18   7   50.96   16.93
  -4  18  -7   29.55   11.13
   6 -18   7   56.11   17.31
  -6  18   7   56.12   11.45
   6  18  -7   36.96    9.52
   6  18   7   47.61   15.24
   6  18   7   19.26   16.10
  -6  18  -7   39.02   12.90
   8  18  -7   -0.42    3.48
   8 -18   7    9.68   10.03
   8  18  -7    0.36    3.06
  -8  18   7   31.86    9.73
  -8  18  -7   15.57   11.04
   8  18   7   10.91   11.26
   8  18   7    3.31   12.27
   1  19  -7   80.19   15.57
  -1  19   7   54.36   15.35
  -1 -19  -7   99.15   18.07
  -1  19  -7   55.99   13.60
   1  19   7   86.39   16.69
   1  19   7   59.08   17.02
   1 -19  -7   95.27   15.43
  -3 -19  -7   90.06   22.59
  -3  19   7  100.80   18.20
   3  19  -7   90.51   16.21
  -3  19  -7  108.89   20.10
   3  19   7  102.06   19.53
   3  19   7  114.17   24.82
   5 -19   7   42.33   14.77
  -5  19   7   69.29   13.36
   5  19  -7   43.96   11.09
  -5  19  -7   60.78   15.32
   5  19   7   73.95   18.01
   5  19   7   71.38   22.15
   7 -19   7   42.80   14.37
  -7  19   7   54.10   12.33
   7  19   7   76.25   19.89
  -7  19  -7   50.96   16.13
   7  19   7   21.46   16.86
   0  20   7   -7.11    5.92
   0  20  -7   14.33    9.27
   0 -20  -7    2.86    5.84
   2  20  -7   54.51   13.08
  -2  20   7   48.14   13.79
   2  20   7   15.72   11.82
   2 -20  -7   32.85    8.99
  -2  20  -7   37.18   11.63
   2  20   7   36.35   11.35
  -4  20   7   24.76    9.42
   4  20  -7   27.43    9.78
  -4  20  -7   40.45   13.08
   4  20   7   14.42   13.42
   4  20   7   31.11   12.11
   6  20  -7   20.85    8.39
   6 -20   7   42.57   15.15
  -6  20   7   42.36   10.61
  -6  20  -7   34.48   12.66
   6  20   7   38.26   19.51
   6  20   7   57.98   17.44
  -1  21   7   51.57   15.64
  -1 -21  -7   44.72   13.28
   1  21  -7   29.90   10.53
   1 -21  -7   53.05   12.61
   1  21   7   18.26   12.79
  -1  21  -7   64.20   15.14
   3  21  -7   60.78   14.06
  -3  21   7   70.51   15.33
   3  21   7   50.17   17.65
   3  21   7   59.92   15.86
  -3  21  -7   23.32   11.33
   5  21  -7   30.33   10.45
  -5  21   7   48.15   12.42
   5  21   7   78.78   23.14
   5  21   7   63.89   17.59
  -5  21  -7   13.82   10.73
   7 -21   7   23.27   14.19
  -7  21   7   53.10   12.75
  -7  21  -7   30.15   14.11
   7  21   7   11.75   12.32
   7  21   7   55.80   21.75
   0  22   7    9.03   10.45
   0 -22  -7   10.79    8.19
   0  22  -7    6.40    7.67
   2  22  -7   49.82   13.82
  -2  22   7   17.94   12.07
   2  22   7   26.25   14.63
   2  22   7   40.67   13.32
  -2  22  -7   36.45   12.07
   4  22  -7   28.18   10.81
  -4  22   7   31.91   11.03
   4  22   7   24.15   16.87
   4  22   7   -2.09    7.54
  -4  22  -7   16.64   10.90
   6 -22   7   22.28   13.10
   6  22  -7   33.11   10.79
  -6  22   7   10.27    8.53
   6  22   7   37.74   17.49
   6  22   7   23.62   13.05
  -6  22  -7   37.12   13.59
  -1  23   7   56.50   16.89
   1  23  -7   40.85   12.53
   1  23   7   70.97   19.00
  -1  23  -7   35.08   12.42
   1 -23  -7   45.11   12.80
  -3  23   7   61.72   15.73
   3  23  -7   61.71   15.84
   3  23   7   37.27   13.33
   3  23   7   57.08   18.83
  -3  23  -7   42.00   13.44
  -5  23   7   26.34    9.92
   5  23  -7   49.47   14.26
   5  23   7   54.36   17.30
   5  23   7   12.96   15.77
  -5  23  -7   61.37   16.84
   0  24   7   23.47   13.06
   0  24  -7   37.89   13.02
   0 -24  -7   15.05   10.42
  -2  24   7   51.08   16.19
   2  24  -7   45.37   13.55
   2 -24  -7   -0.14    3.99
   2  24   7   21.67   16.04
  -2  24  -7   17.39   11.45
  -4  24   7   20.94   11.05
   4  24  -7   20.56   11.58
   4  24   7   14.03   14.30
  -4  24  -7   11.03   10.11
   4  24   7   -0.16    8.88
   1  25  -7   38.81   12.95
  -1  25   7   32.21   15.55
   1  25   7   40.90   16.88
  -1  25  -7   15.35   12.00
  -3  25   7   37.34   12.87
   3  25  -7   26.46   11.10
  -3  25  -7   17.58   12.19
   3  25   7   31.86   16.49
   0  26   7    6.93   12.72
   0 -26  -7   10.67   10.34
   0  26  -7   21.43   12.39
   2  26  -7   12.43   10.43
  -2  26   7    6.06   10.54
  -2  26  -7   24.96   11.63
   2 -26  -7    0.04    4.93
   2  26   7   18.46   15.86
  -1  27   7   51.30   18.42
   1  27  -7   23.82   13.14
   1  27   7   -7.05   10.32
  -1  27  -7    5.06    9.55
   0   0   8  455.40   32.03
   0   0   8  406.08   25.44
  -2   0   8  612.01   38.65
   2   0   8  575.09   36.39
  -2   0   8  644.98   32.80
   2   0   8  671.37   44.02
  -4   0   8  220.95   18.39
   4   0   8  239.26   30.60
  -4   0   8  228.05   14.96
   4   0   8  242.92   21.05
  -6   0   8  170.79   16.11
   6   0   8  201.34   29.37
  -6   0   8  155.38   13.76
   6   0   8  162.58   22.79
  -8   0   8  101.36    9.27
   8   0   8  102.18   22.76
  10   0   8   77.91   20.31
  -1   1   8  189.38   18.29
  -1   1   8  195.21   13.54
   1  -1   8  195.18   24.65
   1  -1   8  184.20   15.63
  -1  -1   8  197.18   14.46
   1   1   8  170.55   14.88
  -1  -1   8  176.14   22.44
   1   1   8  214.51   25.76
   3  -1   8  169.58   23.82
  -3   1   8  134.52    9.60
   3  -1   8  149.42   18.70
  -3   1   8  169.45   14.97
   3   1   8  148.72   14.93
   3   1   8  152.07   22.90
  -3  -1   8  121.49   10.56
  -3  -1   8  122.84   17.05
  -5   1   8  115.18   10.14
   5  -1   8   86.35   15.85
  -5   1   8   88.05   11.32
   5  -1   8   75.11   17.35
  -5  -1   8   91.24   12.77
   5   1   8   85.83   15.14
   5   1   8  108.68   21.72
  -7   1   8   42.44    6.26
  -7   1   8   38.57    6.07
   7  -1   8   41.80   13.37
  -7  -1   8   45.89    8.34
   7   1   8   13.63   10.38
   9  -1   8   71.49   19.45
   9   1   8   37.16   16.44
  -9  -1   8   35.17    6.63
   0  -2   8  179.86   22.72
   0   2   8  190.44   18.58
   0  -2   8  163.14   14.23
   0   2   8  161.73   12.85
  -2   2   8  356.03   19.94
   2  -2   8  370.60   31.30
   2  -2   8  373.43   26.01
  -2   2   8  346.94   25.94
  -2  -2   8  384.47   22.74
  -2  -2   8  374.97   27.95
   2   2   8  385.52   30.83
   2   2   8  365.84   24.74
  -4   2   8  176.36   10.89
  -4   2   8  184.08   15.02
   4  -2   8  189.94   18.81
   4  -2   8  196.88   27.23
   4   2   8  226.42   29.98
  -4  -2   8  188.42   14.58
   4   2   8  173.03   17.47
  -6   2   8  153.62   11.55
   6  -2   8  234.40   32.63
  -6   2   8  169.76   11.86
   6  -2   8  154.59   22.49
  -6  -2   8  147.85   19.78
   6   2   8  150.68   25.15
  -6  -2   8  182.11   15.97
   6   2   8  174.88   23.26
   8  -2   8  113.26   23.31
   8   2   8   80.36   19.42
  -8  -2   8  100.96   13.02
  10  -2   8   44.22   16.20
 -10  -2   8   54.60    8.94
  10   2   8   82.89   21.09
  -1   3   8  103.34   15.88
   1  -3   8   61.52   14.24
   1  -3   8  112.23   14.82
  -1   3   8   76.64    7.53
  -1  -3   8  118.00   17.77
  -1  -3   8   76.36   11.39
   1   3   8  100.61   12.32
   1   3   8   67.96   14.38
  -3   3   8  107.37    7.06
   3  -3   8  110.69   15.82
   3  -3   8  109.68   19.99
  -3   3   8  106.77   13.71
   3   3   8  118.77   16.08
  -3  -3   8  136.73   11.67
   3   3   8  133.36   21.18
  -5   3   8   99.11    8.27
  -5   3   8   98.66    8.88
  -5   3   8   86.34    8.47
   5  -3   8  116.16   18.61
   5  -3   8   89.74   19.27
  -5  -3   8  115.91   15.43
   5   3   8  103.47   20.26
   5   3   8   76.97   14.57
   7  -3   8   39.51   13.67
  -7  -3   8   35.71    8.55
   7   3   8   43.67   14.37
  -7  -3   8   63.20   14.36
   9  -3   8   18.32   12.06
  -9  -3   8   34.05    8.49
   9   3   8   32.91   15.24
   0  -4   8  205.30   16.95
   0   4   8  195.30   13.97
   0   4   8  186.60   18.77
   0  -4   8  210.07   25.72
  -2   4   8  352.39   24.54
   2  -4   8  322.27   29.72
   2  -4   8  346.28   25.07
  -2   4   8  340.44   17.79
   2   4   8  315.61   27.66
  -2  -4   8  346.83   22.77
   2   4   8  334.91   23.04
   4  -4   8  134.78   19.57
   4  -4   8  133.96   22.30
  -4   4   8  126.26   11.07
  -4  -4   8  137.93   13.41
   4   4   8  137.21   18.25
   4   4   8  129.23   21.74
   6  -4   8   71.38   18.27
  -6  -4   8  132.80   17.00
   6   4   8   86.50   15.71
   6   4   8  116.84   21.50
  -6  -4   8  122.40   18.64
   8  -4   8   83.40   20.03
  -8  -4   8   62.89   12.25
   8   4   8   77.34   19.34
  10  -4   8   50.69   17.02
  10   4   8   35.64   14.94
 -10  -4   8   38.06    8.87
  -1   5   8  275.46   15.66
   1  -5   8  251.38   20.60
   1  -5   8  279.54   25.67
  -1   5   8  242.32   20.76
   1   5   8  233.76   17.39
   1   5   8  267.38   23.38
  -1  -5   8  261.07   19.74
  -3   5   8  104.71   10.64
   3  -5   8   97.46   16.00
   3  -5   8  109.72   21.03
  -3  -5   8   97.56   13.63
   3   5   8  113.55   14.77
   3   5   8  112.25   20.20
  -3   5  -8  113.43   11.37
   5  -5   8   77.27   17.25
   5  -5   8   66.23   14.27
  -5   5   8   56.82    5.24
  -5   5   8   60.01    4.05
  -5  -5   8   74.96   13.51
   5   5   8   47.55   11.39
  -5   5  -8   38.98    9.56
   5   5   8   54.18   14.73
   7  -5   8   24.00   12.25
  -7   5   8   40.73    6.14
  -7  -5   8    6.52    8.21
  -7   5  -8   29.72    9.56
  -7  -5   8   36.28    9.37
   7   5   8   19.33    8.81
   9  -5   8   56.18   17.70
   9   5   8   42.55   14.66
  -9  -5   8   16.68    7.99
   0  -6   8  393.80   27.93
   0   6   8  429.47   30.01
   0   6   8  414.53   23.64
   2  -6   8  456.44   31.18
  -2   6   8  426.13   28.32
   2  -6   8  454.12   36.43
   2   6   8  486.25   28.56
  -2   6  -8  462.01   26.54
   2   6   8  393.53   32.83
  -2  -6   8  439.50   28.95
   4  -6   8  126.91   21.86
   4  -6   8  120.79   19.23
  -4  -6  -8  105.47   19.77
   4   6   8  163.64   24.61
  -4  -6   8  125.79   16.53
  -4   6  -8  132.88   13.79
   4   6   8  139.85   14.27
  -6   6   8   97.95    7.43
   6  -6   8  105.73   21.62
   6   6   8   93.91   19.10
   6   6   8  111.07   22.23
  -6  -6   8   92.15   17.39
  -6   6  -8  133.63   18.03
  -6  -6   8  117.62   16.80
   8  -6   8   99.78   22.29
  -8   6   8   77.96   10.13
  -8  -6   8   70.17   13.38
   8   6   8   48.26   15.89
  -8   6  -8   59.86   13.99
  10  -6   8   32.84   14.66
  10   6   8   55.30   17.01
 -10  -6   8   38.41   10.53
  -1   7   8  236.39   18.88
   1  -7   8  222.07   22.79
   1  -7   8  190.10   18.37
   1   7   8  141.36   20.65
   1   7   8  200.14   15.04
  -1   7  -8  199.30   14.10
  -1  -7   8  207.00   17.77
   3  -7   8   64.08   16.18
  -3   7   8   97.98    9.70
  -3  -7  -8   85.38   17.00
   3  -7   8  103.36   16.86
   3   7   8  112.28   11.63
  -3   7  -8   90.53   12.71
  -3  -7   8  106.35   15.48
   3   7   8  111.85   20.14
  -5   7   8   73.12    4.98
   5  -7   8   93.97   21.00
   5  -7   8   91.83   16.96
  -5  -7   8   85.09   15.56
  -5   7  -8   88.52   14.31
   5   7   8   82.89   14.63
   5   7   8   87.18   18.92
  -7   7   8   37.24    6.26
   7  -7   8   48.20   14.74
   7   7   8   21.01   11.94
  -7   7  -8   30.34    9.78
  -7  -7   8   65.53   16.98
  -7  -7   8   34.08    9.76
  -9   7   8   35.02    7.66
   9  -7   8   13.36   11.15
  -9  -7   8   14.59    8.85
   9   7   8   13.09   10.92
  -9   7  -8   31.67   11.31
   0   8  -8  222.05   14.22
   0  -8   8  247.44   20.59
   0   8   8  220.23   20.33
   2  -8   8  300.24   24.72
  -2  -8  -8  302.18   26.07
  -2   8   8  268.23   20.44
   2  -8   8  263.01   27.09
   2   8   8  278.18   25.91
   2   8   8  278.50   20.57
  -2  -8   8  331.57   24.19
  -2   8  -8  287.23   20.09
  -4   8   8  125.60    7.13
   4  -8   8  101.94   20.53
   4  -8   8  139.30   20.53
  -4  -8  -8  157.59   24.57
  -4  -8   8  160.80   20.73
  -4   8  -8  146.90   14.93
   4   8   8  142.33   14.45
   4   8   8  149.24   24.06
   6  -8   8  174.54   28.88
  -6   8   8  154.82   10.54
  -6  -8   8  160.54   22.24
  -6  -8   8  179.80   26.00
   6   8   8  145.61   24.46
  -6   8  -8  168.18   21.85
  -8   8   8   82.33   10.94
   8  -8   8  127.59   25.06
  -8   8  -8  100.72   17.09
  -8  -8   8   71.47   15.41
   8   8   8   79.03   19.58
 -10   8   8   55.52   11.29
  10  -8   8   49.75   17.27
 -10   8  -8   17.99   10.41
 -10  -8   8   39.54   12.87
  10   8   8   16.49   13.39
  -1   9   8  128.79   16.44
   1  -9   8  101.95   16.84
  -1  -9  -8  100.44   16.67
   1   9  -8  107.84    7.78
   1   9   8  111.98   17.54
  -1   9  -8  107.82   10.67
  -1  -9   8  133.06   17.63
   3  -9   8   68.24   14.55
   3  -9   8   66.41   16.21
  -3   9   8   67.49    8.78
  -3  -9  -8   62.36   14.34
  -3  -9   8   81.20   14.31
   3   9   8   53.23   10.48
  -3   9  -8   94.52   14.00
   3   9   8   70.78   15.07
  -5  -9  -8   84.41   18.75
  -5   9   8   89.50    6.87
   5  -9   8   77.72   18.82
  -5   9  -8   74.17   13.79
  -5  -9   8  111.58   19.33
   5   9   8   90.95   14.89
   5   9   8   97.28   19.23
   7  -9   8   45.04   15.27
  -7   9   8   53.44    8.06
  -7  -9   8   58.51   13.07
  -7   9  -8   57.28   13.61
   7   9   8   55.94   16.25
  -7  -9   8   54.71   17.16
  -9   9   8   38.70    8.26
   9  -9   8    2.42    9.10
  -9   9  -8   10.72    9.25
  -9  -9   8   37.93   12.13
   9   9   8   15.30   11.56
   0 -10   8  252.71   21.36
   0  10   8  241.25   21.22
   0  10  -8  201.19   15.72
   2 -10   8  255.00   22.78
  -2  10   8  268.81   19.26
  -2 -10  -8  231.64   23.51
  -2  10  -8  248.52   19.76
   2  10   8  253.54   24.52
   4 -10   8  119.70   22.68
  -4  10   8  128.89   10.64
   4 -10   8  129.80   20.71
  -4 -10  -8   92.51   27.77
  -4 -10   8  159.77   23.23
   4  10   8  144.64   19.18
  -4  10  -8  165.32   16.05
   4  10   8  130.52   22.15
  -6  10   8  113.20    9.48
   6 -10   8  115.18   23.49
   6  10   8  108.91   21.82
  -6 -10   8  132.90   21.18
  -6  10  -8  149.27   20.98
  -6 -10   8  132.86   23.53
   8 -10   8   59.61   17.38
  -8  10   8   72.15   10.39
   8  10   8   77.15   20.48
  -8 -10   8   31.81   12.11
  -8  10  -8   45.56   12.58
  -1  11   8  102.00   14.46
   1 -11   8   70.64   14.85
   1  11  -8  114.59   10.23
  -1 -11  -8  141.58   20.08
   1  11   8  147.31   19.69
  -1 -11   8  118.54   17.50
  -1  11  -8   97.99   13.36
  -3  11   8   48.51    7.12
  -3  11   8   50.21    9.23
   3 -11   8   36.21   11.16
   3 -11   8   72.31   17.47
  -3 -11  -8   46.53   13.14
  -3 -11   8   58.44   13.48
  -3  11  -8   42.63   10.28
   3  11   8   45.30   12.43
   3  11   8   47.95   10.19
  -5  11   8   70.73    8.54
   5 -11   8   78.05   18.46
   5  11   8   49.43   11.95
  -5 -11   8   72.70   17.42
   5  11   8   84.88   18.41
  -5  11  -8   50.18   12.73
   7 -11   8   52.29   17.49
  -7  11   8   46.09    7.87
  -7 -11   8   22.34   11.30
   7  11   8   19.34   12.84
  -7 -11   8   46.82   16.09
  -7  11  -8   47.37   12.39
   9 -11   8   11.47   12.52
  -9  11   8   17.18    6.30
   9  11   8    9.21   10.71
  -9  11  -8    6.52    7.52
   0 -12   8  202.77   25.51
   0 -12  -8  215.17   20.21
   0  12   8  209.26   19.64
   0  12  -8  183.41   15.94
  -2 -12  -8  206.22   26.44
   2  12  -8  167.74   12.66
  -2  12   8  175.79   15.23
  -2  12  -8  166.97   16.76
  -2 -12   8  206.28   26.21
   2  12   8  211.48   21.26
   4 -12   8   71.69   18.43
  -4  12   8  101.31   12.22
   4  12   8   86.96   14.86
   4  12   8  117.14   21.25
  -4  12  -8   73.74   13.76
  -4 -12   8  107.45   20.07
  -6  12   8  101.34    9.65
   6 -12   8   97.70   21.45
   6  12   8   57.53   16.95
  -6 -12   8  144.05   25.99
  -6  12  -8  103.79   17.23
  -6 -12   8  125.66   20.64
  -8  12   8   57.76   10.15
   8 -12   8   36.07   14.01
  -8  12  -8   66.42   15.66
   8  12   8   74.59   20.14
  -1  13   8   84.68   13.79
  -1 -13  -8   90.39   16.42
   1  13  -8   78.77   11.00
   1 -13   8  119.71   20.10
  -1 -13   8   89.35   17.83
   1  13   8   74.29   14.61
  -1  13  -8   85.11   13.31
   3  13  -8   48.32    7.06
  -3  13   8   49.59   10.38
   3 -13   8   31.50   11.23
  -3 -13  -8   67.83   16.63
  -3  13  -8   39.29   10.35
  -3 -13   8   60.95   15.68
   3  13   8   70.04   15.55
   5 -13   8   50.01   16.37
  -5  13   8   51.07    8.62
  -5 -13   8   64.85   16.95
   5  13   8   61.32   15.40
  -5  13  -8   42.41   11.50
  -7  13   8   21.85    6.45
   7 -13   8   12.34   10.60
  -7  13  -8   21.19    9.54
   7  13   8   37.99   15.60
  -9  13   8   12.99    6.98
   9 -13   8    1.87    8.72
   9  13   8   12.76   11.56
  -9  13  -8   18.56   11.59
   0  14   8  141.55   18.92
   0  14  -8  146.01   14.80
   0 -14  -8  157.71   21.11
   0 -14   8  120.98   20.82
  -2  14   8  143.34   13.73
  -2 -14  -8  165.91   24.30
  -2  14   8  123.04   18.40
   2 -14   8  150.25   23.23
   2  14  -8  130.45   12.66
  -2 -14   8  110.62   19.41
  -2  14  -8  159.97   16.40
   2  14   8  148.67   21.82
   4  14  -8   64.64    6.77
   4 -14   8   88.80   20.26
  -4 -14  -8   55.76   18.07
  -4  14   8   54.13   10.37
   4  14   8  100.34   19.30
   4  14   8   68.85   13.05
  -4 -14   8   68.34   17.58
  -4  14  -8   82.53   15.03
  -6  14   8   69.21   10.37
   6 -14   8   73.07   19.16
  -6  14  -8   71.06   14.61
   6  14   8   63.89   17.22
  -8  14   8   41.07    9.37
   8 -14   8   26.85   12.48
   8  14   8   43.53   15.22
  -8  14  -8   19.58   10.32
  -1 -15  -8  159.84   22.30
   1 -15   8  122.06   20.84
  -1  15   8  107.35   15.73
   1  15  -8   99.56   14.39
  -1  15   8  121.55   19.78
   1  15   8  139.06   20.39
  -1 -15   8   94.91   19.51
  -1  15  -8  101.33   15.42
   1 -15  -8  124.17   17.50
  -3  15   8   63.25   12.71
   3  15  -8   47.55    8.44
  -3  15  -8   66.97   13.46
   3  15   8   42.62   13.57
  -3 -15   8   64.35   17.03
   5 -15   8   23.84   12.89
  -5  15   8   27.79    7.43
   5  15   8   52.89   13.97
  -5  15  -8   28.92    9.93
  -7  15   8   27.25    7.03
   7 -15   8   12.60   11.26
   7  15   8   17.76   11.88
  -7  15  -8   15.94    9.59
   0  16  -8  168.77   17.12
   0  16   8  195.57   26.89
   0 -16  -8  132.77   19.93
   0  16   8  186.71   22.82
  -2  16   8  147.67   21.60
   2  16  -8  159.95   15.44
  -2 -16  -8  137.39   22.93
  -2  16  -8  149.16   21.38
  -2 -16   8  117.60   25.01
   2  16   8  140.79   22.32
  -4  16   8   96.28   14.93
   4  16  -8   71.62   10.50
   4 -16   8   80.59   19.51
   4  16   8  112.68   21.73
  -4  16  -8   70.19   14.72
   6 -16   8   56.33   17.32
  -6  16   8   48.78    9.94
   6  16   8   61.91   17.70
  -6  16  -8   78.25   14.97
  -8  16   8   31.36    9.22
   8 -16   8   12.37   11.34
  -8  16  -8   35.56   12.37
   8  16   8   22.19   13.91
  -1  17   8   86.54   14.62
  -1 -17  -8   93.54   17.83
  -1  17   8  102.21   19.30
   1  17  -8   58.13   11.72
  -1  17  -8   78.13   14.16
   1  17   8   86.14   19.62
   1 -17  -8   89.43   15.36
   1  17   8   73.96   14.92
  -3 -17  -8   74.18   17.26
   3  17  -8   35.11    9.25
  -3  17   8   62.44   13.26
  -3  17  -8   46.12   12.00
   3  17   8   41.23   13.06
   3  17   8   59.71   17.84
   5 -17   8   36.68   13.49
  -5  17   8   38.88    9.33
   5  17   8   25.19   15.05
  -5  17  -8   43.87   12.99
   5  17   8   33.09   12.37
   7 -17   8   21.88   11.03
  -7  17   8   33.17    8.90
  -7  17  -8    7.30    8.85
   7  17   8   21.57   12.43
   7  17   8    9.03   13.61
   0  18   8   87.86   15.27
   0  18  -8   71.51   14.97
   0 -18  -8  102.96   18.16
   0  18   8   90.69   19.90
   2  18  -8   85.71   14.24
  -2  18   8  120.87   20.45
   2  18   8   89.01   17.59
   2  18   8  117.15   24.84
  -2  18  -8   87.54   16.78
   4  18  -8   50.39    9.87
  -4  18   8   77.70   14.02
   4  18   8   70.16   20.82
   4  18   8   51.88   15.10
  -4  18  -8   66.89   15.63
  -6  18   8   62.80   12.21
   6 -18   8   49.51   15.90
  -6  18  -8   46.46   13.54
   6  18   8   54.34   19.34
   6  18   8   42.68   14.39
  -1 -19  -8   23.28   10.79
  -1  19   8   27.99   12.53
   1  19  -8    6.75    6.68
   1  19   8   20.14   11.56
   1 -19  -8   28.95    9.33
  -1  19  -8   25.69    8.95
   1  19   8   14.00    9.39
  -3  19   8   33.61   10.75
   3  19  -8   28.96    8.66
  -3  19  -8    8.03    7.97
   3  19   8   41.61   16.86
   3  19   8   44.17   13.50
  -5  19   8   32.76    9.84
   5  19  -8   -0.83    3.44
   5 -19   8   17.17   12.65
   5  19   8   -0.85   11.19
   5  19   8    6.86    9.70
  -5  19  -8   13.32    9.13
   7  19  -8    0.54    2.79
  -7  19   8   22.78    8.62
   7 -19   8   12.65   12.43
  -7  19  -8   16.75   12.26
   7  19   8    9.10   12.09
   7  19   8   11.97   15.07
   0 -20  -8   50.46   12.71
   0  20   8   88.78   19.19
   0  20  -8   48.73   12.55
  -2 -20  -8   71.32   17.95
  -2  20   8   79.90   17.34
   2  20  -8   56.12   13.04
  -2  20  -8   44.22   13.32
   2  20   8   49.92   17.12
   2  20   8   41.51   12.67
  -4  20   8   35.15   10.69
   4  20  -8   17.83    7.49
   4  20   8   39.99   13.30
  -4  20  -8   55.85   15.20
   4  20   8   13.29   14.37
   6 -20   8   14.31   11.74
   6  20  -8    2.15    4.00
  -6  20   8   24.38    9.10
   6  20   8   -2.84   11.31
  -6  20  -8   16.30   10.37
   6  20   8   16.44   13.11
  -1  21   8   15.34   11.66
   1  21  -8   15.84    9.07
   1 -21  -8   -2.40    3.88
   1  21   8   13.67   12.44
   1  21   8   50.82   13.83
  -1  21  -8   29.85   10.50
  -3  21   8   39.31   11.92
   3  21  -8   14.20    8.54
  -3  21  -8   17.09   10.47
   3  21   8   15.63   14.25
   3  21   8   18.57   11.41
  -5  21   8    7.51    7.13
   5  21  -8   -1.18    4.23
   5 -21   8   -1.32    8.15
  -5  21  -8    3.56    8.67
   5  21   8    9.75   10.30
   5  21   8   -1.80   10.36
   0  22   8   36.91   13.96
   0  22  -8   36.46   11.94
   0 -22  -8   47.70   13.25
   2  22  -8   28.43   10.45
  -2  22   8   61.21   17.11
  -2  22  -8   74.46   16.12
   2  22   8   72.33   17.36
   2  22   8   56.95   18.44
   4  22  -8   29.88   10.17
  -4  22   8   32.31   10.75
   4  22   8   12.99   11.54
  -4  22  -8   49.77   14.93
   4  22   8   56.07   20.57
  -1  23   8   23.95   13.62
   1  23  -8   25.67   11.75
   1 -23  -8    1.39    5.03
   1  23   8    5.97   11.46
  -1  23  -8   24.61   10.95
  -3  23   8   16.52   11.46
   3  23  -8   32.67   11.02
   3 -23  -8    0.29    2.85
  -3  23  -8   12.86   11.06
   3  23   8   37.47   13.89
   3  23   8    8.51   13.41
  -5  23  -8   12.18   10.21
   0  24  -8   19.13   11.82
   0  24   8   47.70   16.84
   2  24  -8   26.44   10.84
  -2  24   8   46.70   16.24
  -2  24  -8   56.32   16.23
   2  24   8   50.99   19.88
  -4  24   8   24.42   12.27
   4  24  -8    4.25    8.43
   4  24   8   49.31   20.45
  -4  24  -8   22.69   13.19
   4  24   8   17.33   13.55
   1  25  -8   14.47    9.55
  -1  25   8   11.50   12.24
  -1  25  -8    6.12    9.31
   1  25   8    4.12   11.02
   1 -25  -8    2.42    6.24
   0   0   9   94.41   12.65
   0   0   9   98.52   17.69
   2   0   9  103.32   14.72
   2   0   9  106.11   18.93
  -2   0   9   89.12    9.27
  -2   0   9  114.56   16.97
  -4   0   9  169.58   16.40
  -4   0   9  167.03   12.79
   4   0   9  144.81   24.89
   4   0   9  177.87   17.89
   6   0   9   67.57   16.06
  -6   0   9   47.98   10.32
  -6   0   9   41.27    7.98
  -6   0   9   42.22    8.08
   8   0   9   51.98   16.52
  -8   0   9   42.45    5.90
  -8   0   9   38.98    5.87
   1  -1   9  189.81   25.50
   1  -1   9  187.97   16.85
  -1   1   9  192.91   14.64
  -1   1   9  199.30   19.92
  -1  -1   9  187.56   23.75
  -1  -1   9  195.78   15.56
   1   1   9  184.41   16.15
   1   1   9  219.32   22.02
   3  -1   9  226.28   30.71
  -3   1   9  249.70   20.39
  -3   1   9  213.97   14.63
   3  -1   9  230.67   20.22
   3   1   9  255.82   21.10
  -3  -1   9  196.71   19.36
  -3  -1   9  235.22   16.23
   3   1   9  234.38   31.37
  -5   1   9  200.26   16.57
   5  -1   9  185.43   28.98
  -5   1   9  185.35   14.58
   5  -1   9  212.17   21.55
  -5  -1   9  216.93   18.34
   5   1   9  146.86   26.04
   5   1   9  215.19   20.76
  -5  -1   9  201.47   16.35
   7  -1   9   94.33   21.37
  -7   1   9   77.87    7.42
  -7   1   9   76.27    7.57
  -7  -1   9   82.27   11.57
  -7  -1   9   88.37   11.79
   7   1   9   91.86   20.71
   9  -1   9   90.04   21.73
  -9  -1   9   62.28    6.45
  -9  -1   9   70.12    6.57
   9   1   9   38.15   15.58
   0  -2   9  167.82   14.91
   0  -2   9  140.21   21.21
   0   2   9  153.21   13.24
   0   2   9  157.59   21.61
  -2   2   9   96.81    8.43
   2  -2   9  109.91   19.70
   2  -2   9   90.45   14.36
   2   2   9   60.14   15.11
  -2  -2   9   62.97   13.33
  -2  -2   9   95.32   12.10
   2   2   9   95.88   13.94
  -4   2   9  111.73    8.58
   4  -2   9  115.81   18.27
  -4   2   9   99.59   13.65
   4  -2   9  143.09   23.63
  -4  -2   9  132.91   17.56
  -4  -2   9  107.99   13.58
   4   2   9   79.34   18.58
   4   2   9  106.86   17.12
  -6   2   9   29.29    5.66
  -6   2   9   25.22    5.31
  -6   2   9   25.48    7.30
   6  -2   9   48.22   15.29
  -6  -2   9   22.08    8.32
   6   2   9   14.13   10.38
  -6  -2   9   32.45    8.29
   8  -2   9   41.32   15.09
  -8  -2   9   32.84    8.04
   8   2   9   44.82   14.09
   1  -3   9  266.38   26.16
  -1   3   9  303.73   18.68
   1  -3   9  304.77   22.78
  -1   3   9  277.50   24.17
  -1  -3   9  288.80   21.16
  -1  -3   9  241.38   24.70
   1   3   9  303.72   21.02
   1   3   9  286.12   26.64
   3  -3   9  119.69   18.61
   3  -3   9  138.11   23.79
  -3   3   9  159.05   10.45
  -3   3   9  149.20   15.25
   3   3   9  203.36   27.38
   3   3   9  158.62   16.25
  -3  -3   9  187.38   14.84
  -3  -3   9  153.72   20.52
   5  -3   9  165.88   26.72
   5  -3   9  136.84   23.67
  -5   3   9  117.74    9.32
  -5   3   9  124.54   11.06
   5   3   9  101.11   20.04
  -5  -3   9  109.99   15.85
   5   3   9  103.36   17.60
   7  -3   9   48.39   15.98
  -7  -3   9   49.28   13.98
  -7  -3   9   59.86   11.39
   7   3   9   68.77   19.04
   9  -3   9   38.62   14.34
   9   3   9   37.14   16.47
  -9  -3   9   45.28    8.54
   0  -4   9  145.33   21.89
   0   4   9  117.40   18.23
   0  -4   9  136.75   17.37
   0   4   9  142.20   11.99
   2  -4   9   63.50   15.29
  -2   4   9   71.92    6.75
  -2   4   9   87.50   13.43
   2  -4   9   70.63   13.16
   2   4   9   89.05   13.04
  -2  -4   9   63.16   13.97
  -2  -4   9   76.85   11.98
   2   4   9   55.72   13.95
  -4   4   9   80.75   11.37
  -4   4   9   90.46    6.10
   4  -4   9   72.54   16.96
   4  -4   9   92.32   16.96
   4   4   9   84.69   18.13
  -4  -4   9   83.80   12.60
   4   4   9   93.49   15.37
   6  -4   9   44.41   14.46
  -6  -4   9    3.49    7.02
   6   4   9   30.39   12.29
  -6  -4   9   27.67    8.27
   8  -4   9   24.19   13.34
  -8  -4   9   27.74    8.40
   8   4   9   32.21   15.03
   1  -5   9  272.10   26.19
   1  -5   9  233.57   20.53
  -1   5   9  250.99   21.74
  -1   5   9  243.62   16.01
  -1  -5   9  239.59   24.59
   1   5   9  272.66   24.93
  -1  -5   9  258.29   20.46
   1   5   9  243.53   18.40
   3  -5   9  143.16   20.33
   3  -5   9  147.50   24.86
  -3   5   9  148.14   13.67
  -3   5   9  112.09    8.03
   3   5   9  128.35   21.72
   3   5   9  170.67   15.73
  -3  -5   9  153.14   14.53
  -5   5   9  133.85    8.85
   5  -5   9  152.46   25.91
  -5   5   9  135.54    9.01
  -5   5   9  137.99    8.53
   5   5   9  154.44   21.74
  -5  -5   9  153.09   20.66
   5   5   9  169.71   26.69
   7  -5   9   88.86   20.79
  -7  -5   9   77.94   14.00
   7   5   9   90.59   21.10
  -7  -5   9   48.77   15.06
   9  -5   9   32.04   15.89
   9   5   9   47.18   17.01
  -9  -5   9   67.72   13.53
   0  -6   9  125.81   17.49
   0   6   9  102.68   10.34
   0  -6   9  121.63   20.14
   0   6   9  129.22   18.55
   2  -6   9   93.04   18.87
   2  -6   9   94.45   15.13
  -2   6   9   66.04    6.28
  -2   6   9   82.57   12.89
   2   6   9   82.40   16.99
  -2  -6   9   61.73   11.88
   2   6   9   75.90   11.94
   4  -6   9  126.17   19.42
   4  -6   9  123.93   23.26
  -4   6   9   86.85    9.01
  -4  -6   9  112.83   16.34
   4   6   9  108.81   16.41
   4   6   9   70.29   16.94
   6  -6   9   36.40   13.40
  -6  -6   9   43.04   11.96
   6   6   9   49.62   15.67
  -6  -6   9   32.70   11.30
   8  -6   9   23.53   13.05
   8   6   9   23.86   13.04
  -8  -6   9   36.19   10.59
  -1   7   9  229.50   15.03
  -1   7   9  269.22   21.93
   1  -7   9  224.64   21.03
   1  -7   9  187.91   27.43
   1   7   9  232.23   17.43
   1   7   9  226.37   22.59
  -1  -7   9  223.45   20.17
  -3   7   9  133.78   12.59
   3  -7   9  125.27   19.23
   3  -7   9   95.56   19.52
   3   7   9  134.27   17.36
  -3   7  -9  128.69   12.62
   3   7   9  140.69   22.86
  -3  -7   9  153.53   19.58
   5  -7   9  137.49   24.29
   5   7   9  149.29   25.28
  -5  -7   9  196.51   20.26
   5   7   9  152.09   21.52
  -5   7  -9  195.22   17.46
   7  -7   9   71.62   18.62
  -7   7   9   82.67    7.15
  -7  -7   9   55.11   15.85
  -7  -7   9   74.54   15.65
   7   7   9   67.81   17.44
  -7   7  -9   65.63   14.01
   9  -7   9   25.75   15.10
  -9  -7   9   43.05   12.33
   9   7   9   53.86   17.44
   0   8   9  190.60   24.25
   0  -8   9  197.56   19.64
   0   8   9  209.39   15.25
   2  -8   9   78.07   17.54
  -2   8   9   61.41   11.35
   2  -8   9   77.13   15.06
   2   8   9   73.23   11.66
   2   8   9   60.26   14.52
  -2  -8   9   69.25   13.53
  -2   8  -9   58.00    8.78
  -4   8   9   59.31    5.65
  -4  -8  -9   70.29   17.51
   4  -8   9   72.83   18.31
   4   8   9   89.55   15.12
  -4   8  -9   71.25   11.97
   4   8   9   47.70   14.30
  -4  -8   9   80.88   15.62
   6  -8   9   36.19   13.96
  -6   8   9   50.76    4.73
  -6  -8   9   31.15   12.21
  -6   8  -9   47.07   11.04
   6   8   9   46.56   14.98
  -6  -8   9   35.76   10.84
  -8   8   9   35.69    6.88
   8  -8   9   41.31   15.22
  -8  -8   9   23.68   10.82
   8   8   9   12.04   11.37
  -8   8  -9   34.40   10.19
  -1   9   9  223.17   19.76
   1  -9   9  204.52   20.28
   1  -9   9  217.69   29.86
   1   9   9  227.56   22.31
  -1   9  -9  188.04   14.18
   1   9   9  188.25   15.74
  -1  -9   9  196.52   19.43
  -3  -9  -9  110.51   22.16
  -3   9   9   94.28   11.74
   3  -9   9  101.75   18.28
   3  -9   9   84.58   19.86
  -3  -9   9  110.95   18.07
  -3   9  -9  116.06   12.10
   3   9   9  103.18   18.72
   3   9   9  128.68   17.48
   5  -9   9  138.29   25.37
  -5   9   9  138.70    8.37
  -5   9  -9  129.35   18.35
   5   9   9  115.49   22.41
  -5  -9   9  125.50   21.92
   7  -9   9   47.91   16.30
  -7   9   9   56.08    7.23
  -7   9  -9   58.14   12.65
   7   9   9   44.29   14.21
  -7  -9   9   56.90   17.74
  -7  -9   9   51.43   13.21
   9  -9   9    9.07   12.02
  -9   9   9   30.10    7.02
  -9   9  -9   30.34   10.50
  -9  -9   9    4.66    7.78
   9   9   9   45.43   16.96
   0  10  -9  126.27    9.80
   0 -10   9  128.65   19.31
   0  10   9  138.45   19.39
   2 -10   9   14.91   10.36
  -2 -10  -9   42.14   12.63
  -2  10   9   31.41    8.20
   2 -10   9   44.10   12.33
  -2  10  -9   35.49    7.56
  -2 -10   9   52.74   12.91
   2  10   9   49.95   10.02
   2  10   9   43.98   12.39
   4 -10   9   39.82   13.41
  -4  10   9   58.52    8.22
  -4 -10   9   86.87   17.77
  -4  10  -9   48.91   10.56
   4  10   9   67.01   13.41
   4  10   9   85.86   18.30
  -6  10   9   45.48    6.20
   6 -10   9   63.43   17.23
  -6  10  -9   52.94   12.05
   6  10   9   28.72   13.28
  -6 -10   9   32.52   11.05
  -6 -10   9   43.66   15.11
   8 -10   9   47.71   16.95
  -8  10   9   29.91    6.48
  -8 -10   9   18.54   11.95
  -8  10  -9   26.85   10.37
   8  10   9   11.34   10.83
   1  11  -9  153.98    9.62
  -1  11   9  172.47   17.52
   1 -11   9  200.90   25.62
   1  11   9  138.71   20.38
  -1 -11   9  159.03   22.61
  -1  11  -9  179.20   14.44
   3 -11   9   69.14   17.38
  -3  11   9   63.42    8.73
  -3 -11   9   98.70   17.95
   3  11   9   84.22   13.77
   3  11   9   86.90   17.56
  -3  11  -9   73.09   12.14
  -5  11   9  112.64    9.00
   5 -11   9  118.26   24.00
  -5  11  -9   98.99   15.62
  -5 -11   9  149.56   24.79
   5  11   9   95.68   20.64
  -7  11   9   46.92    7.53
   7 -11   9   15.83   12.47
  -7  11  -9   37.80   10.63
   7  11   9   68.22   18.57
   0 -12   9  113.66   18.88
   0  12   9  101.36   16.98
   0  12  -9   91.19   11.54
  -2 -12  -9   25.53   10.09
  -2  12   9   28.62    7.62
  -2 -12   9   64.40   15.09
   2  12   9   32.82   11.02
  -2  12  -9   44.13    9.21
  -4  12   9   51.71    9.05
   4 -12   9   55.72   16.61
   4  12   9   64.56   13.30
   4  12   9   46.61   14.31
  -4 -12   9   57.06   16.11
  -4  12  -9   56.71   11.71
   6 -12   9    8.02   10.90
  -6  12   9   34.96    6.32
   6  12   9   15.76   11.80
  -6  12  -9   47.91   12.24
  -8  12   9   21.47    6.24
   8 -12   9   11.45   11.49
  -8  12  -9   12.31    9.24
   8  12   9    3.01    8.68
  -1  13   9  137.15   17.68
  -1 -13  -9  119.79   20.56
   1  13  -9  141.75   11.62
   1 -13   9  120.52   22.78
   1  13   9  162.04   22.94
  -1  13  -9  129.13   13.49
  -1 -13   9  141.58   22.58
  -3  13   9   62.72   11.42
   3 -13   9  113.01   22.40
  -3 -13   9   77.02   17.86
  -3  13  -9   51.61   11.28
   3  13   9   54.43   14.68
   3  13   9   72.66   13.00
   5 -13   9  105.88   23.76
  -5  13   9   87.20   10.74
   5  13   9   61.60   16.77
  -5 -13   9   57.78   18.90
  -5  13  -9   67.38   14.15
  -7  13   9   54.67    8.94
   7 -13   9    7.06   10.70
  -7  13  -9   41.66   11.97
   7  13   9   43.50   15.52
   0  14   9  115.16   17.85
   0 -14  -9   95.19   17.17
   0  14  -9   93.47   12.72
   2  14  -9   44.75    6.43
  -2  14   9   23.56    9.32
  -2  14   9   39.15    8.15
  -2 -14  -9   15.69    9.79
   2  14   9   37.25   12.33
  -2  14  -9   38.50    9.91
  -2 -14   9   25.94   10.95
   4 -14   9   45.53   14.85
  -4  14   9   51.07    9.53
   4  14   9   44.64   14.19
  -4  14  -9   50.99   11.07
  -6  14   9   36.89    7.21
   6 -14   9   10.58   11.12
  -6  14  -9   34.07   11.37
   6  14   9   23.63   12.64
   8 -14   9    4.74   10.08
  -8  14   9   24.92    7.75
  -8  14  -9    9.44    9.06
   8  14   9   13.88   12.65
  -1 -15  -9  144.40   22.26
   1  15  -9  117.11   12.03
  -1  15   9  101.68   18.46
  -1  15   9  115.59   16.74
  -1  15  -9   83.42   13.12
   1  15   9   76.00   16.24
  -3  15   9   54.35   12.18
   3 -15   9   45.30   16.19
   3  15   9   60.97   16.15
  -3  15  -9   48.39   11.80
   5 -15   9   37.04   14.52
  -5  15   9   68.34   10.75
   5  15   9   68.87   17.15
  -5  15  -9   66.16   13.78
  -7  15   9   36.33    8.46
   7 -15   9   51.86   17.47
   7  15   9   16.81   13.47
  -7  15  -9   14.91    9.73
   0  16   9   79.60   17.89
   0 -16  -9   58.96   13.81
   0  16   9   67.88   13.68
   0  16  -9   53.34   10.97
  -2  16   9   32.86   11.02
   2  16  -9   32.88    6.96
  -2  16  -9   29.36    8.92
   2  16   9   10.60    8.99
  -4  16   9   36.26    9.06
   4 -16   9   17.85   12.57
  -4  16  -9   33.47   10.51
   4  16   9   79.48   18.62
  -6  16   9   22.87    6.98
   6 -16   9   18.66   11.68
  -6  16  -9   14.32   10.25
   6  16   9   10.19   10.42
  -1 -17  -9  115.33   20.09
  -1  17   9   98.29   19.06
  -1  17   9   97.16   15.85
   1  17  -9   81.99   12.62
   1  17   9   90.91   17.88
  -1  17  -9   79.42   13.95
   1  17   9   94.56   20.46
  -3  17   9   67.04   14.03
   3  17   9   41.75   13.32
  -3  17  -9   69.94   14.41
  -5  17   9   50.19   10.40
   5 -17   9   41.22   14.76
  -5  17  -9   50.80   14.45
   5  17   9   85.13   20.68
  -7  17  -9   14.84   10.18
   0  18   9   62.92   17.40
   0 -18  -9   47.10   13.49
   0  18   9   53.37   12.59
   0  18  -9   32.31    9.34
  -2  18   9   30.36   11.93
  -2 -18  -9   14.38   15.72
   2  18  -9   15.16    6.95
  -2  18  -9    7.57    6.86
   2  18   9   44.30   12.67
   2  18   9    5.57   10.00
   4 -18   9   16.78   12.08
  -4  18   9   37.06   10.56
  -4  18  -9   38.36   10.88
   4  18   9   13.02   11.13
   4  18   9    4.72   13.37
  -6  18   9   16.64    7.64
   6 -18   9    8.45   10.85
   6  18   9    8.81   10.10
  -6  18  -9   29.05   12.00
   6  18   9  -10.22    6.79
   1  19  -9   54.12   11.93
  -1  19   9   45.17   15.20
  -1  19  -9   43.46   11.84
   1  19   9   54.18   17.11
   1  19   9   59.43   14.69
  -3  19   9   46.76   13.02
  -3  19  -9   62.58   13.83
   3  19   9   12.41   13.49
   3  19   9   57.29   15.44
  -5  19   9   24.59    8.74
   5 -19   9   52.09   17.15
   5  19   9   62.09   16.69
  -5  19  -9   35.09   12.02
   5  19   9   87.82   24.49
   0  20  -9   32.41   10.15
   0 -20  -9   15.95    9.72
   0  20   9   15.58   11.74
   0  20   9   31.37   10.23
  -2  20   9   16.12   11.24
   2  20  -9   26.76    8.68
   2  20   9    1.63    7.09
   2  20   9    0.16    9.74
  -2  20  -9    8.06    8.30
   4 -20   9    8.14   10.69
   4  20  -9   -0.85    2.72
  -4  20   9    8.35    8.22
  -4  20  -9    9.10    8.87
   4  20   9   19.23   12.93
   4  20   9   16.91   15.80
  -1 -21  -9    0.42    7.97
  -1  21   9   33.35   12.88
   1  21  -9   19.65    8.26
  -1  21  -9   22.21   10.05
   1  21   9   42.42   12.93
   1  21   9   48.89   16.44
   3  21  -9    0.19    4.24
  -3  21   9   19.28    9.93
   3  21   9   19.41   11.79
   3  21   9   20.12   15.34
  -3  21  -9   23.41    9.39
   0  22   9   29.13   15.60
   0 -22  -9   -1.71    5.89
   0  22  -9   16.07   10.14
   2  22  -9    8.30    6.74
  -2  22   9   12.65   11.49
  -2  22  -9   11.93   10.13
   2  22   9   14.67   10.69
   2  22   9   24.69   16.21
   1  23  -9   16.08    9.17
  -1  23   9   20.93   13.33
   1 -23  -9    0.12    5.13
  -1  23  -9   27.68   10.49
   1  23   9   70.77   20.14
   0   0  10  207.56   17.63
   0   0  10  208.50   26.99
  -2   0  10  108.96   17.84
  -2   0  10  129.96   12.24
   2   0  10  153.05   19.84
   2   0  10  106.43   20.02
   4   0  10  186.26   24.37
  -4   0  10  164.18   16.77
  -4   0  10  160.98   13.60
  -6   0  10   94.29   12.94
   6   0  10   92.43   20.81
  -6   0  10   79.28   13.35
  -6   0  10   57.35   10.39
   8   0  10   62.97   19.21
  -1   1  10   76.96   14.98
  -1   1  10   82.18   11.57
   1  -1  10   41.20   10.48
   1  -1  10   92.32   18.20
  -1  -1  10   81.83   12.14
   1   1  10   78.21   16.80
   1   1  10   80.58   13.17
  -1  -1  10   71.79   15.07
   3  -1  10  117.30   21.73
  -3   1  10   95.00    9.37
   3  -1  10   87.99   15.77
  -3   1  10   73.77   13.70
  -3  -1  10  107.32   16.59
   3   1  10   81.37   18.34
   3   1  10  100.39   16.50
  -3  -1  10   97.56   12.51
  -5   1  10   51.24   10.08
  -5   1  10   56.48    9.58
   5   1  10   84.83   19.20
  -5  -1  10   57.73   10.46
  -5  -1  10   60.75   12.00
   7  -1  10   39.71   14.67
  -7   1  10   27.24    4.99
  -7   1  10   27.82    4.96
   7   1  10   30.30   15.53
  -7  -1  10   26.23    7.06
  -7  -1  10   35.41    7.81
   0   2  10  189.05   25.09
   0   2  10  214.09   16.82
   0  -2  10  171.91   25.30
   0  -2  10  154.79   16.28
  -2   2  10  121.24   11.00
   2  -2  10  149.45   19.89
   2  -2  10  147.18   23.76
  -2   2  10  122.43   18.08
  -2  -2  10  125.91   19.84
   2   2  10  127.81   17.70
  -2  -2  10  121.78   12.66
  -4   2  10  179.13   16.34
   4  -2  10  147.83   25.68
   4  -2  10  147.70   21.71
  -4   2  10  164.20   12.26
   4   2  10  162.49   26.32
   4   2  10  195.12   24.74
  -4  -2  10  178.13   22.45
  -4  -2  10  176.07   15.35
  -6   2  10   77.81    9.47
  -6   2  10   87.77    8.73
  -6   2  10   87.12   12.30
   6  -2  10   58.51   17.05
  -6  -2  10   68.57   12.51
   6   2  10   51.65   16.18
  -6  -2  10   82.65   15.31
  -6  -2  10  104.02   14.92
   8  -2  10   41.10   16.26
   8   2  10   50.01   17.57
  -8  -2  10   43.05    8.35
  -8  -2  10   37.33    7.76
  -1   3  10   60.25    9.46
   1  -3  10   50.28   14.23
  -1   3  10   41.90   11.90
   1  -3  10   41.83   10.45
   1   3  10   43.42    9.06
   1   3  10   43.82   11.98
  -1  -3  10   54.50   10.80
  -1  -3  10   41.46   12.31
  -3   3  10   65.46   12.62
   3  -3  10   88.65   16.61
  -3   3  10   74.32    7.61
   3  -3  10   88.99   19.32
   3   3  10   85.99   14.95
  -3  -3  10   74.27   12.31
  -3  -3  10   85.46   15.18
   3   3  10   94.94   18.16
  -5   3  10   53.49    7.45
  -5   3  10   43.04    8.03
   5  -3  10   59.76   15.69
  -5  -3  10   43.88   10.77
   5   3  10   67.73   18.64
  -5  -3  10   39.32   10.31
   7  -3  10   56.30   17.27
   7   3  10   13.77   10.82
  -7  -3  10   21.09    7.53
  -7  -3  10   39.45   12.83
  -7  -3  10   17.92    7.00
   0  -4  10  166.01   24.96
   0   4  10  155.81   14.10
   0   4  10  151.09   21.59
   0  -4  10  174.20   16.73
  -2   4  10   96.04   15.21
   2  -4  10   84.55   15.25
  -2   4  10   97.39    9.18
   2  -4  10   96.73   20.20
   2   4  10   89.79   14.76
  -2  -4  10  123.52   20.09
  -2  -4  10   87.50   13.87
   2   4  10  101.78   18.64
   4  -4  10  158.11   27.20
  -4   4  10  182.87   15.19
  -4   4  10  132.29    9.63
   4   4  10  112.77   22.34
  -4  -4  10  185.55   16.59
  -4  -4  10  130.54   19.81
   4   4  10  155.33   21.61
   6  -4  10   94.72   21.28
  -6  -4  10   67.09   13.77
   6   4  10  101.93   23.22
  -6  -4  10   53.16   13.11
   8  -4  10   31.06   15.42
   8   4  10   53.55   17.28
  -8  -4  10   43.89    9.77
   1  -5  10   43.28   11.07
  -1   5  10   51.89    8.24
   1  -5  10   58.72   14.55
  -1   5  10   64.21   12.76
   1   5  10   60.16   11.13
  -1  -5  10   39.55   12.00
   1   5  10   63.38   15.12
  -1  -5  10   44.19   10.29
  -3   5  10   64.95    6.26
   3  -5  10   67.83   17.03
  -3   5  10   60.99   11.01
   3  -5  10   69.25   14.42
  -3  -5  10   53.50   11.54
   3   5  10   39.19   13.52
   3   5  10   60.06   12.44
  -3  -5  10   64.53   14.51
   5  -5  10   52.14   15.65
  -5   5  10   43.81    6.01
  -5   5  10   47.95    6.39
  -5   5  10   57.38    5.07
   5   5  10   55.42   15.33
  -5  -5  10   61.13   13.73
   7   5  10   51.37   17.41
  -7  -5  10   53.04   15.52
  -7  -5  10   37.02   10.07
   0  -6  10  173.38   17.85
   0   6  10  176.20   23.01
   0  -6  10  152.29   24.02
   0   6  10  154.74   13.85
   2  -6  10   67.14   17.39
   2  -6  10   89.99   16.28
  -2   6  10   96.63    8.48
  -2   6  10   78.67   13.67
  -2  -6  10   85.54   17.22
  -2  -6  10   99.28   15.58
   2   6  10   56.66   14.57
   2   6  10   99.24   14.75
   4  -6  10  116.86   22.76
  -4   6  10  150.96   12.43
  -4   6  10  123.38    7.88
   4   6  10  116.37   23.13
   4   6  10  129.32   19.67
  -4  -6  10  133.42   19.12
   6  -6  10   76.79   18.32
  -6  -6  10   57.86   13.41
  -6  -6  10   77.07   17.10
   6   6  10   68.02   19.34
   8  -6  10   19.77   13.88
  -8  -6  10   35.23   11.12
   8   6  10   56.61   18.89
  -1   7  10   85.17   15.23
   1  -7  10   67.37   16.57
  -1   7  10   71.91    9.72
   1  -7  10   71.86   14.86
   1   7  10   82.04   12.53
   1   7  10   69.29   15.41
  -1  -7  10   67.92   13.10
  -1  -7  10   68.01   15.72
  -3   7  10   60.24    5.78
  -3   7  10   49.46    9.69
   3  -7  10   78.36   18.56
   3   7  10   41.68   10.09
   3   7  10   57.95   15.45
  -3  -7  10   70.36   14.58
   5  -7  10   46.28   15.74
  -5  -7  10   56.69   14.46
   5   7  10   52.88   15.64
   7  -7  10   28.65   15.59
  -7  -7  10   18.85    9.49
   7   7  10   17.23   12.62
  -7  -7  10    2.36    9.64
   0  -8  10  221.03   29.85
   0  -8  10  194.04   24.25
   0   8  10  164.91   22.49
   0   8  10  151.72   13.73
  -2   8  10  104.02   15.07
  -2   8  10  102.58    8.98
   2  -8  10   78.06   17.88
   2  -8  10   90.69   16.94
   2   8  10  129.19   20.72
  -2  -8  10  101.35   16.55
   2   8  10  113.90   16.04
  -4   8  10  140.42   10.57
   4  -8  10  116.60   23.59
  -4  -8  10  159.05   22.66
   4   8  10  154.28   23.48
   4   8  10  139.02   24.36
   6  -8  10   49.72   16.28
  -6  -8  10   68.59   17.19
   6   8  10   80.23   19.73
  -6  -8  10   66.09   15.73
   8  -8  10   57.91   19.66
  -8  -8  10   14.66    9.84
   8   8  10   16.19   12.77
   1  -9  10   74.98   14.46
  -1   9  10   70.99    9.87
  -1   9  10   97.17   15.91
   1  -9  10   68.12   16.93
   1   9  10   66.51   11.05
  -1  -9  10   63.92   14.13
   1   9  10   64.22   14.77
   3  -9  10   54.07   16.13
  -3   9  10   42.14    8.16
   3   9  10   42.04   10.70
   3   9  10   46.91   13.06
  -3  -9  10   61.38   14.38
   5  -9  10   39.17   14.43
  -5   9 -10   49.78   10.73
  -5  -9  10   36.02   12.65
   5   9  10   42.04   14.18
   7  -9  10   15.59   11.92
  -7  -9  10   10.62   12.86
  -7  -9  10   14.16    9.49
   7   9  10   20.24   12.64
   0 -10  10  143.94   22.13
   0  10  10  152.66   13.50
   0  10  10  138.60   20.53
   2 -10  10   82.31   19.85
  -2  10  10   77.35   12.30
   2  10  10   69.65   16.10
   2  10  10   70.92   12.93
  -2 -10  10   61.07   14.19
   4 -10  10   93.87   21.79
  -4  10  10   89.28    8.92
   4  10  10   97.77   19.69
  -4 -10  10   82.68   18.09
  -4  10 -10   75.40   12.32
  -6  10  10   73.65    5.65
   6 -10  10   86.08   21.13
  -6  10 -10   66.73   13.71
  -6 -10  10   55.94   17.48
   6  10  10   69.51   18.92
  -1  11  10   53.57   11.43
   1  11  10   43.03    9.39
  -1 -11  10   29.45   11.87
   1  11  10   35.16   10.45
   3 -11  10   63.10   18.73
  -3  11  10   32.67    6.82
   3  11  10   14.48    9.90
  -3 -11  10   24.09   11.98
   3  11  10   36.11    9.56
  -3  11 -10   27.84    7.84
  -5  11  10   55.82    6.52
   5 -11  10   48.76   15.97
  -5  11 -10   59.34   11.62
   5  11  10   30.13   14.17
  -5 -11  10   17.63   11.32
  -7  11  10   17.90    4.21
   7 -11  10   14.66   11.76
   7  11  10   23.47   14.23
  -7  11 -10    5.95    7.75
   0  12  10  119.76   18.58
  -2  12  10   53.76   10.11
   2 -12  10   51.04   15.42
   2  12  10   65.85   15.17
  -2 -12  10   49.61   14.49
  -2  12 -10   70.43   11.18
   2  12  10   49.91   10.94
  -4  12  10   72.76   10.58
   4 -12  10   80.41   20.51
   4  12  10  113.97   22.36
  -4 -12  10   64.03   18.35
  -4  12 -10   87.40   13.55
  -6  12  10   49.04    6.79
   6 -12  10   65.89   20.00
   6  12  10   34.80   14.37
  -6  12 -10   58.49   12.44
  -1  13  10   22.16    8.17
   1  13  10   30.26   10.56
  -1  13 -10   42.17    8.36
  -3  13  10   30.13    8.67
   3 -13  10   31.90   13.75
  -3  13 -10   22.69    7.33
   3  13  10   37.71   13.13
  -5  13  10   36.20    6.64
   5 -13  10   43.67   15.76
   5  13  10   32.49   14.13
   7 -13  10   18.18   13.63
  -7  13  10   11.96    4.81
  -7  13 -10   12.82    8.82
   7  13  10   10.27   11.11
   0  14  10   79.12   15.35
   0  14 -10   42.78    7.55
  -2 -14 -10   39.50   14.19
  -2  14  10   61.59   13.47
  -2  14  10   42.48    9.20
   2 -14  10   60.94   18.26
   2  14  10   68.30   16.39
   2  14  10   55.44   11.80
  -4  14  10   69.99   11.44
   4 -14  10   34.85   13.94
   4  14  10   80.14   18.47
  -4  14 -10   63.26   12.14
  -6  14  10   36.26    6.70
   6 -14  10   71.88   21.37
  -6  14 -10   22.14    9.24
   6  14  10   37.68   15.04
  -1  15  10   23.18   11.54
  -1  15  10   43.48   10.99
  -1  15 -10   33.77    8.71
   1  15  10   48.44   13.32
  -3  15  10   37.08   10.54
   3 -15  10   44.96   16.38
  -3  15 -10   41.48   10.28
   3  15  10    6.16    8.68
   5 -15  10    7.42   10.68
  -5  15  10   25.37    7.07
  -5  15 -10   26.85   10.51
   5  15  10   21.40   10.46
   0  16 -10   49.94    9.13
   0  16  10   41.29   15.14
   0  16  10   73.32   14.31
  -2  16  10   69.77   15.60
  -2  16 -10   31.10    9.24
   2  16  10   24.20   11.81
  -4  16  10   69.87   12.29
   4 -16  10   70.35   20.19
  -4  16 -10   53.35   12.82
   4  16  10   44.58   14.43
  -1  17  10   18.71   11.48
  -1  17  10   12.97    7.78
   1  17  10   22.91   13.67
  -1  17 -10   22.01    7.95
   1  17  10   23.26   11.36
   3 -17  10   18.82   13.05
  -3  17  10   33.26   11.07
   3  17  10    5.67    8.42
  -3  17 -10   16.49    8.87
   5 -17  10   25.64   15.76
  -5  17  10   24.16    7.73
  -5  17 -10   21.42   10.81
   5  17  10   27.42   12.62
   0  18 -10   42.77    8.94
   0  18  10   48.81   13.17
   0  18  10   54.15   17.17
  -2  18  10   47.87   14.43
   2  18  10   30.67   11.42
   2  18  10   13.26   13.11
  -2  18 -10   21.24    8.48
  -4  18  10   43.61   11.52
   4 -18  10   54.87   18.28
   4  18  10   19.47   15.22
   4  18  10   33.44   14.07
  -4  18 -10   22.91    9.78
  -1  19  10   15.63   11.76
   1  19  10   -1.35    6.64
   1  19  10   33.96   16.40
  -1  19 -10    1.11    5.61
   3  19 -10   -0.22    2.35
  -3  19  10    9.51    8.44
   3 -19  10    7.40    9.79
   3  19  10    7.51    9.50
   3  19  10   23.07   16.04
  -3  19 -10   -1.75    6.76
   0 -20 -10   -0.71    5.98
   0  20  10   26.34   15.08
   0  20 -10   41.61   11.08
   0  20  10   23.18   11.04
  -2  20  10   14.70   10.95
   2  20  10   11.69   13.78
   2  20  10   22.60   10.53
  -2  20 -10   35.42   11.50
   1  21 -10    0.72    4.56
  -1  21  10    8.52   10.64
   1  21  10   -2.99    9.49
   1  21  10    9.40    9.54
  -1  21 -10    0.00    6.42
   0   0  11   66.18   15.92
   0   0  11   93.71   14.55
  -2   0  11   88.85   12.99
   2   0  11   78.73   18.52
   2   0  11   75.78   14.72
  -2   0  11   75.19   15.54
  -4   0  11   36.61    8.38
  -4   0  11   38.72    9.82
   4   0  11   24.22   13.48
  -6   0  11   33.39    9.50
  -6   0  11   31.85    7.99
   6   0  11   39.50   14.58
  -6   0  11   25.94    7.30
   1  -1  11  124.85   18.33
  -1   1  11  137.80   13.73
  -1   1  11  122.45   20.52
   1  -1  11  140.09   23.13
  -1  -1  11  129.13   22.09
   1   1  11   85.71   18.16
  -1  -1  11  127.93   16.78
   1   1  11  144.41   19.36
   3  -1  11  110.04   21.98
  -3   1  11  124.14   18.12
   3  -1  11   99.76   20.68
  -3   1  11  105.90   11.31
  -3  -1  11   83.32   16.41
   3   1  11  141.42   20.87
   3   1  11   97.28   20.82
  -3  -1  11  121.54   15.29
  -5   1  11   84.30   12.99
   5  -1  11   64.56   19.18
  -5   1  11   56.93   10.36
  -5  -1  11   85.36   14.42
   5   1  11   66.28   18.46
  -5  -1  11   75.84   13.11
  -7   1  11   36.76    4.78
   7  -1  11   48.34   17.02
  -7   1  11   51.27    4.93
  -7  -1  11   43.26    8.82
  -7  -1  11   43.25   13.50
  -7  -1  11   43.36    8.64
   7   1  11   42.12   16.75
   0  -2  11   39.06   10.44
   0   2  11   49.45   14.17
   0  -2  11   24.50   11.75
   0   2  11   32.87    9.05
  -2   2  11   40.77    8.61
   2  -2  11   75.76   14.83
  -2   2  11   62.49   13.91
   2  -2  11   45.94   14.44
   2   2  11   45.65   11.34
   2   2  11   63.11   16.14
  -2  -2  11   42.88   12.57
  -2  -2  11   43.38   10.03
  -4   2  11   42.18    7.53
  -4   2  11   32.51    8.92
   4  -2  11   50.00   15.80
  -4  -2  11   40.70    9.65
   4   2  11   20.59   11.62
  -4  -2  11   23.15    8.93
  -6   2  11   29.92    6.25
  -6   2  11   32.10    6.24
   6  -2  11   20.45   13.04
  -6   2  11   31.97    8.29
  -6  -2  11   17.45    7.79
  -6  -2  11   25.98   10.54
  -6  -2  11   43.25   10.75
   6   2  11   58.43   17.97
  -1   3  11  105.19   14.08
   1  -3  11   98.86   19.75
  -1   3  11   78.48   16.44
   1  -3  11  109.56   17.52
  -1  -3  11  140.74   22.58
   1   3  11   82.14   18.25
   1   3  11  121.29   17.00
  -1  -3  11   88.58   14.66
  -3   3  11   79.00   10.47
  -3   3  11   68.03   13.65
   3  -3  11   90.17   19.80
   3   3  11   80.25   15.00
   3   3  11   78.96   19.06
  -3  -3  11   79.46   16.43
  -3  -3  11   74.64   13.10
  -5   3  11   76.53    9.79
   5  -3  11   71.36   20.16
  -5   3  11   59.47    9.69
  -5  -3  11   74.50   14.46
   5   3  11   71.91   18.95
  -5  -3  11   47.50   11.52
   7  -3  11   54.81   18.87
   7   3  11   14.75   13.96
  -7  -3  11   43.09   11.70
  -7  -3  11   42.53   10.72
  -7  -3  11   42.77   15.52
   0   4  11   16.27    8.99
   0  -4  11   37.81   10.11
   0   4  11   33.87    8.39
   0  -4  11   33.92   13.37
   2  -4  11   37.26   11.42
   2  -4  11   37.84   13.63
  -2   4  11   36.10    7.48
  -2   4  11   50.57   12.60
   2   4  11   43.87   13.38
  -2  -4  11   44.35   12.75
  -2  -4  11   37.24   10.30
   2   4  11   35.57   10.27
   4  -4  11   44.01   14.81
  -4   4  11   30.69    8.43
  -4   4  11   28.45    5.43
   4   4  11   65.23   17.11
  -4  -4  11   24.48   10.31
  -4  -4  11   31.56    9.85
   6  -4  11   16.53   12.68
   6   4  11   18.57   13.36
  -6  -4  11   31.91   10.08
  -6  -4  11   13.51    9.81
  -6  -4  11   33.90   10.21
   1  -5  11  105.58   17.88
   1  -5  11  105.33   21.12
  -1   5  11   81.51   15.85
  -1   5  11  114.88   14.44
  -1  -5  11  111.59   17.46
   1   5  11  106.84   18.59
   1   5  11   93.65   15.25
  -1  -5  11   61.67   15.53
  -3   5  11   99.54    9.31
  -3   5  11   94.22   14.64
   3  -5  11  137.75   25.41
  -3  -5  11   94.46   16.10
   3   5  11   82.72   15.69
  -3  -5  11   81.35   16.76
   3   5  11   83.18   17.70
   5  -5  11   51.08   17.44
  -5   5  11   63.82    7.83
  -5   5  11   56.26    5.91
  -5  -5  11   48.68   12.24
  -5  -5  11   73.01   16.33
   5   5  11   35.76   14.94
   7  -5  11   31.44   16.46
  -7  -5  11   32.04   10.35
   7   5  11   43.38   15.88
  -7  -5  11   63.77   20.42
  -7  -5  11   20.47   10.75
   0   6  11   39.34   11.29
   0  -6  11   36.96   10.71
   0   6  11   37.04    8.41
   0  -6  11   13.77   10.94
  -2   6  11   47.15   11.52
  -2   6  11   54.96    8.84
   2  -6  11   52.53   15.88
  -2  -6  11   42.69   12.95
  -2  -6  11   51.91   12.32
   2   6  11   59.70   15.34
   2   6  11   48.98   11.53
   4  -6  11   35.40   13.87
  -4   6  11   35.13    7.49
  -4   6  11   53.27    5.41
  -4  -6  11   34.65   11.23
  -4  -6  11   30.24   10.82
   4   6  11   40.24   14.24
   6  -6  11   37.48   14.36
   6   6  11   16.42   13.15
  -6  -6  11   20.66    9.65
  -6  -6  11    8.81   10.58
  -1   7  11   82.06   15.70
   1  -7  11   88.49   20.50
   1  -7  11   57.05   14.15
  -1   7  11   85.36   12.31
   1   7  11   84.13   18.33
  -1  -7  11   69.37   14.65
  -1  -7  11  116.88   21.65
   1   7  11   80.37   13.50
   3  -7  11   98.65   22.46
  -3   7  11   82.93    8.25
  -3   7  11   96.01   13.97
   3   7  11   93.52   16.67
  -3  -7  11  105.16   17.43
   3   7  11   91.89   19.90
  -3  -7  11  103.90   19.78
   5  -7  11   49.94   16.37
  -5  -7  11   49.89   14.23
   5   7  11   33.96   15.11
   7  -7  11   67.31   21.52
   7   7  11   51.14   18.47
   0   8  11    8.27    7.63
   0  -8  11   38.47   11.78
   0  -8  11   31.31   13.66
   0   8  11   34.16    8.24
  -2   8  11   33.01    9.36
  -2   8  11   45.26    7.63
   2  -8  11   24.64   12.17
  -2  -8  11   39.85   13.46
  -2  -8  11   59.36   14.04
   2   8  11   24.98   11.95
   2   8  11   46.00   10.89
  -4   8  11   45.25    4.77
   4  -8  11   22.50   14.01
  -4   8  11   49.72    7.18
   4   8  11   38.31   15.61
  -4  -8  11   41.16   12.84
   6  -8  11   19.43   13.08
  -6  -8  11   35.60   14.01
   6   8  11   16.09   10.38
  -1   9  11   74.94   10.88
  -1   9  11   79.54   14.58
   1  -9  11   77.75   20.09
   1   9  11   40.59   10.08
   1   9  11   81.25   17.39
  -1  -9  11   58.66   13.67
  -1  -9  11   69.60   17.85
  -3   9  11   83.95   12.30
   3  -9  11  103.03   22.42
  -3   9  11   91.57    8.27
   3   9  11   92.09   20.53
  -3  -9  11   97.89   19.30
   5  -9  11   69.38   19.73
   5   9  11   41.91   14.99
  -5  -9  11   44.43   15.24
   0  10  11   29.31    8.16
   0  10  11   32.75   10.89
   0 -10  11   20.14   11.55
  -2  10  11   65.34    9.44
   2 -10  11   45.84   15.57
  -2  10  11   48.57   10.25
   2  10  11   41.93   13.27
  -2 -10  11   35.09   12.53
   2  10  11   52.49   12.00
  -4  10  11   29.11    4.50
  -4  10  11   18.22    5.54
   4 -10  11   20.23   12.82
   4  10  11   24.94   12.69
  -4 -10  11    6.64   10.31
   6 -10  11    3.68    9.79
   6  10  11   11.31   11.44
   1 -11  11   70.79   18.49
  -1  11  11   73.48   14.63
  -1  11  11   95.55   12.58
   1  11  11   65.49   15.39
   1  11  11   75.39   13.12
   3 -11  11   82.23   21.62
  -3  11  11   82.74    9.79
  -3  11  11   74.46   10.51
   3  11  11   93.72   21.08
   5 -11  11   35.96   14.00
   5  11  11   57.72   16.95
   0  12  11   28.53   10.20
   0  12  11   14.81    6.08
   0 -12  11   13.58   12.14
  -2  12  11   44.06    9.63
   2 -12  11   44.21   14.60
   2  12  11   30.66    9.68
   2  12  11   41.73   13.20
  -4  12  11   26.64    7.12
   4 -12  11    1.53    8.44
   4  12  11   10.25   10.16
   1 -13  11   30.83   14.91
  -1  13  11   30.59    9.13
   1  13  11   23.06    8.15
   1  13  11   19.91   10.02
  -3  13  11   52.40   11.88
  -3  13  11   47.58    7.63
   3 -13  11   54.15   17.98
  -3  13 -11   33.25    8.73
   3  13  11   48.44   14.30
  -5  13  11   28.16    5.56
   5 -13  11   42.06   16.41
   5  13  11   29.84   13.48
  -5  13 -11   28.72    9.09
   0  14  11   33.15    9.31
   0  14  11    9.95    8.73
  -2  14  11   26.10   10.86
   2 -14  11   16.82   12.53
  -2  14  11   24.29    6.71
   2  14  11   15.70   10.29
  -4  14  11   39.67    8.82
   4 -14  11   26.93   15.24
   4  14  11    6.05    9.34
  -1  15  11   33.70   12.02
   1 -15  11   24.26   14.05
  -1  15  11   57.91   12.02
   1  15  11   17.71    8.57
   1  15  11   17.35   10.04
   3 -15  11   36.98   15.97
  -3  15  11   51.90   12.68
  -3  15 -11   28.44    8.18
   3  15  11   53.27   15.50
   0  16  11   -1.47    9.15
   0  16  11   30.41   10.27
  -2  16  11   33.53   12.17
   2 -16  11   27.54   15.92
   2  16  11   24.99   11.14
  -1  17  11   51.92   16.19
  -1  17  11   47.53   12.08
   1  17  11   29.98   11.73
   1  17  11   29.21   16.34
   0  18  11   25.94   13.40
   0  18  11   15.49    9.28
   0   0  12  104.59   16.80
   0   0  12   95.18   20.21
  -2   0  12   49.55   13.80
  -2   0  12   95.57   14.13
   2   0  12   82.78   20.18
   4   0  12   24.72   15.09
  -4   0  12   62.97   13.70
  -4   0  12   60.89   11.18
  -1   1  12   49.30   10.91
   1  -1  12   62.29   16.80
  -1   1  12   50.73   14.33
   1  -1  12   44.28   12.60
  -1  -1  12   50.30   12.01
  -1  -1  12  102.82   19.45
   1   1  12   63.88   13.36
   1   1  12   37.07   14.48
   3  -1  12   21.80   12.55
  -3   1  12   28.86   10.50
  -3   1  12   40.90    8.99
  -3  -1  12   25.63   10.61
   3   1  12   23.84   12.96
  -3  -1  12   20.91    7.91
   5  -1  12   19.45   13.15
  -5   1  12   23.36    8.25
  -5   1  12   31.33    9.32
  -5  -1  12   19.36    8.68
  -5  -1  12   24.77    9.39
   0  -2  12   94.63   16.24
   0  -2  12   98.35   19.72
   0   2  12  121.79   18.11
   0   2  12   77.19   18.35
  -2   2  12   88.69   13.22
  -2   2  12   81.27   16.57
   2  -2  12   84.49   20.48
   2   2  12   81.39   19.26
   2   2  12   44.63   13.78
  -2  -2  12   88.18   15.11
  -2  -2  12   96.45   18.78
   4  -2  12   71.57   19.57
  -4   2  12   57.61    9.99
  -4   2  12   40.12   10.48
  -4  -2  12   46.04   11.50
   4   2  12   49.94   16.57
  -4  -2  12   45.93   12.36
   1  -3  12   43.31   13.59
  -1   3  12   61.96   15.12
   1  -3  12   33.71   11.13
  -1   3  12   62.32   11.77
  -1  -3  12   59.45   12.97
  -1  -3  12   63.87   16.83
   1   3  12   41.34   13.85
   1   3  12   70.87   14.60
   3  -3  12   27.62   14.32
  -3   3  12   31.67   10.05
  -3   3  12   29.93    7.44
   3   3  12   16.78   11.68
  -3  -3  12    8.39    8.84
  -3  -3  12   28.88    9.57
   5  -3  12    7.29   10.65
  -5   3  12   25.26    7.02
  -5   3  12   31.74    9.61
  -5  -3  12   22.84    9.02
   5   3  12   12.77   12.07
  -5  -3  12    9.39    9.17
   0   4  12   64.64   15.86
   0   4  12   63.62   12.76
   0  -4  12   94.49   19.62
   0  -4  12   62.13   14.85
  -2   4  12   50.96   12.47
   2  -4  12   79.24   20.04
  -2   4  12   63.40   10.94
   2   4  12   64.40   17.43
   2   4  12   56.06   13.68
  -2  -4  12   73.07   14.77
  -2  -4  12   76.41   16.74
   4  -4  12   63.77   19.14
  -4   4  12   61.84   12.44
  -4   4  12   48.22    8.03
  -4  -4  12   51.69   13.29
   4   4  12   31.94   13.47
  -4  -4  12   41.28   12.72
  -1   5  12   26.97    8.21
  -1   5  12   26.68   10.60
   1  -5  12   26.12   13.00
   1   5  12   17.05    8.71
   1   5  12    8.36    8.67
  -1  -5  12   10.17    9.76
  -1  -5  12   11.99    8.78
  -3   5  12   24.32    9.18
   3  -5  12   43.37   14.97
  -3   5  12   21.85    6.42
  -3  -5  12   25.77   10.19
   3   5  12   60.61   17.63
  -3  -5  12   10.29    9.79
  -5   5  12   20.10    4.44
   5  -5  12   11.44   10.74
   5   5  12   12.98   12.40
  -5  -5  12   22.89    9.93
  -5  -5  12   15.22   12.64
   0  -6  12   62.44   17.25
   0   6  12   71.01   13.21
   0   6  12   38.84   12.23
  -2   6  12   68.43   14.89
   2  -6  12   82.08   19.85
  -2   6  12   61.73   10.77
   2   6  12   76.38   18.07
   2   6  12   73.47   16.03
  -2  -6  12   36.93   12.82
  -2  -6  12   51.30   14.03
  -4   6  12   47.91    9.16
  -4   6  12   50.20    6.95
   4  -6  12   43.56   15.47
  -4  -6  12   29.28   11.46
   4   6  12   22.87   13.56
  -4  -6  12   52.11   13.62
   1  -7  12   22.91   12.72
  -1   7  12   33.84   10.74
  -1   7  12   23.18    7.71
   1   7  12   45.41   14.47
   1   7  12   45.68   11.89
  -1  -7  12   35.99   13.61
  -3   7  12   38.51    9.22
   3  -7  12   43.66   15.19
  -3   7  12   16.47    5.49
   3   7  12   18.57   12.75
  -3  -7  12    7.17    8.89
  -3  -7  12   11.73    9.74
   5  -7  12    6.09   11.28
  -5  -7  12   34.67   13.12
   5   7  12    6.55    8.90
   0   8  12   66.05   15.16
   0  -8  12   73.22   18.15
   0   8  12   38.31   10.23
  -2   8  12   66.65   13.16
  -2   8  12   92.75   12.47
   2  -8  12   70.29   19.26
   2   8  12   84.53   19.19
  -2  -8  12   77.90   19.27
  -4   8  12   40.18    6.75
  -4   8  12   38.23    6.97
   4  -8  12   30.09   16.49
  -4  -8  12   32.75   14.97
   4   8  12   65.10   17.49
  -4  -8  12   47.12   14.10
   1  -9  12   59.80   17.53
  -1   9  12   37.56    8.79
  -1   9  12   21.71    9.86
   1   9  12   42.93   10.87
  -1  -9  12   50.48   15.41
   1   9  12   63.16   16.99
  -3   9  12   24.44    6.29
   3  -9  12   19.56   13.11
  -3   9  12   35.95    8.26
   3   9  12   37.60   13.74
  -3  -9  12   38.04   14.27
   0 -10  12   41.86   14.85
   0  10  12   45.18   10.38
   0  10  12   57.26   14.48
   2 -10  12   54.26   16.81
  -2  10  12   62.32   10.52
  -2  10  12   50.38   11.23
  -2 -10  12   56.75   16.27
   2  10  12   48.42   14.72
  -4  10  12   32.73    7.05
   4 -10  12   48.73   17.28
   4  10  12   27.22   14.42
   1 -11  12    7.71   10.59
  -1  11  12    8.87    7.46
  -1  11  12   20.69    7.85
  -1 -11  12   16.64   12.15
   1  11  12   35.49   11.83
   1  11  12   36.39   10.46
   3 -11  12   54.16   18.23
  -3  11  12   19.42    6.20
   3  11  12   31.85   14.31
   0  12  12   40.87   10.24
   0  12  12   18.39   10.68
   0 -12  12   48.64   16.32
  -2  12  12   37.25    9.55
   2 -12  12   72.57   20.03
  -2 -12  12    9.89   11.21
   2  12  12   22.69   12.15
  -1  13  12   10.66    7.64
   1 -13  12   22.96   14.41
   1  13  12    1.84    7.14
  -1 -13  12   14.47   13.05
   0  14  12   13.37    9.66
   0 -14  12   17.08   12.11
   0   0  13   46.29   13.27
   0   0  13   53.68   15.57
  -2   0  13   11.66   12.56
   2   0  13    7.72   10.48
  -2   0  13    1.65    7.30
  -1   1  13   50.24   12.50
  -1   1  13   30.57   11.36
   1  -1  13   65.00   18.14
   1   1  13   38.09   14.22
  -1  -1  13   41.38   11.47
  -1  -1  13   69.54   17.28
   0  -2  13   49.68   15.62
   0   2  13   38.23   13.78
   0   2  13   39.53   12.20
  -2   2  13    0.75    6.51
   2  -2  13   16.80   12.26
  -2  -2  13   11.60   10.26
  -2  -2  13   -3.20    6.92
   2   2  13    8.12   10.48
  -1   3  13   42.73   11.72
   1  -3  13   44.48   15.44
  -1   3  13   44.91   13.48
  -1  -3  13   42.36   13.73
   1   3  13   64.90   16.84
  -1  -3  13   42.99   14.87
   0   4  13   22.02    9.31
   0   4  13   13.64   10.34
   0  -4  13   30.57   14.49
   2  -4  13   15.81   12.90
  -2   4  13    4.86    7.51
   2   4  13    3.78    8.94
  -2  -4  13   10.36    9.87
  -2  -4  13    4.80    8.51
  -1   5  13   44.27   13.30
   1  -5  13   28.89   14.88
   1   5  13   60.58   17.69
  -1  -5  13   32.23   13.11
   0  -6  13   30.74   15.19
   0   6  13   21.89   11.25
   0   6  13   11.64   13.14
   0   0   0    0.00    0.00

_computing_structure_solution     'SHELXT 2018/2 (Sheldrick, 2018)'
;
_shelx_hkl_checksum                67028
_olex2_submission_special_instructions  'No special instructions were received'
# start Validation Reply Form
_vrf_PLAT242_mo_q_kho_300k_0m_a
;
PROBLEM: Low    'MainMol' Ueq as Compared to Neighbors of         K1 Check 
RESPONSE: This is due to the disordered coordination of nitrate ions with K1
;
