
#======================================================================
# CRYSTAL DATA
#----------------------------------------------------------------------
data_VESTA_phase_1

_chemical_name_common                  '1Q_TbCs'
_cell_length_a                         24.716999
_cell_length_b                         20.048000
_cell_length_c                         10.208000
_cell_angle_alpha                      90.000000
_cell_angle_beta                       112.697998
_cell_angle_gamma                      90.000000
_cell_volume                           4666.573652
_space_group_name_H-M_alt              'P 1'
_space_group_IT_number                 1

loop_
_space_group_symop_operation_xyz
   'x, y, z'

loop_
   _atom_site_label
   _atom_site_occupancy
   _atom_site_fract_x
   _atom_site_fract_y
   _atom_site_fract_z
   _atom_site_adp_type
   _atom_site_U_iso_or_equiv
   _atom_site_type_symbol
   O1         1.0     0.747700     0.350800     0.782800    Uiso  ? O
   O2         1.0     0.928600     0.168300     0.320600    Uiso  ? O
   O3         1.0     0.759000     0.379900     0.594100    Uiso  ? O
   O4         1.0     0.757700     0.349400     0.226200    Uiso  ? O
   O5         1.0     0.709300     0.418500     0.301200    Uiso  ? O
   O6         1.0     0.748300     0.455300     0.728000    Uiso  ? O
   O7         1.0     0.879400     0.250500     0.255400    Uiso  ? O
   O8         1.0     0.805300     0.423200     0.395100    Uiso  ? O
   O9         1.0     0.880500     0.186800     0.096400    Uiso  ? O
   O10        1.0     0.852900     0.471200     0.685700    Uiso  ? O
   O11        1.0     0.247700     0.850800     0.782800    Uiso  ? O
   O12        1.0     0.428600     0.668300     0.320600    Uiso  ? O
   O13        1.0     0.259000     0.879900     0.594100    Uiso  ? O
   O14        1.0     0.257700     0.849400     0.226200    Uiso  ? O
   O15        1.0     0.151100     0.051500     0.465600    Uiso  ? O
   O16        1.0     0.209300     0.918500     0.301200    Uiso  ? O
   O17        1.0     0.248300     0.955300     0.728000    Uiso  ? O
   O18        1.0     0.379400     0.750500     0.255400    Uiso  ? O
   O19        1.0     0.305300     0.923200     0.395100    Uiso  ? O
   O20        1.0     0.380500     0.686800     0.096400    Uiso  ? O
   O21        1.0     0.352900     0.971200     0.685700    Uiso  ? O
   O22        1.0     0.252300     0.350800     0.217200    Uiso  ? O
   O23        1.0     0.213600     0.414800     0.297000    Uiso  ? O
   O24        1.0     0.149700     0.449700     0.472000    Uiso  ? O
   O25        1.0     0.308500     0.424700     0.399900    Uiso  ? O
   O26        1.0     0.118700     0.313200     0.901800    Uiso  ? O
   O27        1.0     0.242300     0.349400     0.773800    Uiso  ? O
   O28        1.0     0.348900     0.551500     0.534400    Uiso  ? O
   O29        1.0     0.120600     0.250500     0.744600    Uiso  ? O
   O30        1.0     0.070800     0.330100     0.676900    Uiso  ? O
   O31        1.0     0.258300     0.380400     0.593700    Uiso  ? O
   O32        1.0     0.248400     0.456700     0.728300    Uiso  ? O
   O33        1.0     0.752300     0.850800     0.217200    Uiso  ? O
   O34        1.0     0.713600     0.914800     0.297000    Uiso  ? O
   O35        1.0     0.649700     0.949700     0.472000    Uiso  ? O
   O36        1.0     0.808500     0.924700     0.399900    Uiso  ? O
   O37        1.0     0.618700     0.813200     0.901800    Uiso  ? O
   O38        1.0     0.742300     0.849400     0.773800    Uiso  ? O
   O39        1.0     0.848900     0.051500     0.534400    Uiso  ? O
   O40        1.0     0.620600     0.750500     0.744600    Uiso  ? O
   O41        1.0     0.570800     0.830100     0.676900    Uiso  ? O
   O42        1.0     0.758300     0.880400     0.593700    Uiso  ? O
   O43        1.0     0.748400     0.956700     0.728300    Uiso  ? O
   O44        1.0     0.252300     0.649200     0.217200    Uiso  ? O
   O45        1.0     0.071400     0.831700     0.679400    Uiso  ? O
   O46        1.0     0.241000     0.620100     0.405900    Uiso  ? O
   O47        1.0     0.242300     0.650600     0.773800    Uiso  ? O
   O48        1.0     0.290700     0.581500     0.698800    Uiso  ? O
   O49        1.0     0.251700     0.544700     0.272000    Uiso  ? O
   O50        1.0     0.120600     0.749500     0.744600    Uiso  ? O
   O51        1.0     0.194700     0.576800     0.604900    Uiso  ? O
   O52        1.0     0.119500     0.813200     0.903600    Uiso  ? O
   O53        1.0     0.147100     0.528800     0.314300    Uiso  ? O
   O54        1.0     0.752300     0.149200     0.217200    Uiso  ? O
   O55        1.0     0.571400     0.331700     0.679400    Uiso  ? O
   O56        1.0     0.741000     0.120100     0.405900    Uiso  ? O
   O57        1.0     0.742300     0.150600     0.773800    Uiso  ? O
   O58        1.0     0.790700     0.081500     0.698800    Uiso  ? O
   O59        1.0     0.751700     0.044700     0.272000    Uiso  ? O
   O60        1.0     0.620600     0.249500     0.744600    Uiso  ? O
   O61        1.0     0.694700     0.076800     0.604900    Uiso  ? O
   O62        1.0     0.619500     0.313200     0.903600    Uiso  ? O
   O63        1.0     0.647100     0.028800     0.314300    Uiso  ? O
   O64        1.0     0.747700     0.649200     0.782800    Uiso  ? O
   O65        1.0     0.786400     0.585200     0.703000    Uiso  ? O
   O66        1.0     0.850300     0.550300     0.528000    Uiso  ? O
   O67        1.0     0.691500     0.575300     0.600100    Uiso  ? O
   O68        1.0     0.881300     0.686800     0.098200    Uiso  ? O
   O69        1.0     0.757700     0.650600     0.226200    Uiso  ? O
   O70        1.0     0.651100     0.448500     0.465600    Uiso  ? O
   O71        1.0     0.879400     0.749500     0.255400    Uiso  ? O
   O72        1.0     0.929200     0.669900     0.323100    Uiso  ? O
   O73        1.0     0.741700     0.619600     0.406300    Uiso  ? O
   O74        1.0     0.751600     0.543300     0.271700    Uiso  ? O
   O75        1.0     0.247700     0.149200     0.782800    Uiso  ? O
   O76        1.0     0.286400     0.085200     0.703000    Uiso  ? O
   O77        1.0     0.350300     0.050300     0.528000    Uiso  ? O
   O78        1.0     0.191500     0.075300     0.600100    Uiso  ? O
   O79        1.0     0.381300     0.186800     0.098200    Uiso  ? O
   O80        1.0     0.257700     0.150600     0.226200    Uiso  ? O
   O81        1.0     0.151100     0.948500     0.465600    Uiso  ? O
   O82        1.0     0.379400     0.249500     0.255400    Uiso  ? O
   O83        1.0     0.429200     0.169900     0.323100    Uiso  ? O
   O84        1.0     0.241700     0.119600     0.406300    Uiso  ? O
   O85        1.0     0.251600     0.043300     0.271700    Uiso  ? O
   O86        1.0     0.564900     0.500000     0.309200    Uiso  ? O
   O87        1.0     0.645900     0.500000     0.310100    Uiso  ? O
   O88        1.0     0.934600     0.500000     0.689600    Uiso  ? O
   O89        1.0     0.064900     0.000000     0.309200    Uiso  ? O
   O90        1.0     0.434600     0.000000     0.689600    Uiso  ? O
   O91        1.0     0.435100     0.500000     0.690800    Uiso  ? O
   O92        1.0     0.354100     0.500000     0.689900    Uiso  ? O
   O93        1.0     0.065400     0.500000     0.310400    Uiso  ? O
   O94        1.0     0.935100     0.000000     0.690800    Uiso  ? O
   O95        1.0     0.854100     0.000000     0.689900    Uiso  ? O
   O96        1.0     0.565400     0.000000     0.310400    Uiso  ? O
   N1         1.0     0.756900     0.395700     0.302600    Uiso  ? N
   N2         1.0     0.738600     0.395400     0.693600    Uiso  ? N
   N3         1.0     0.899400     0.207600     0.231300    Uiso  ? N
   N4         1.0     0.602600     0.435390     0.859500    Uiso  ? N
   N5         1.0     0.900000     0.249400     0.558400    Uiso  ? N
   N6         1.0     0.256900     0.895700     0.302600    Uiso  ? N
   N7         1.0     0.238600     0.895400     0.693600    Uiso  ? N
   N8         1.0     0.399400     0.707600     0.231300    Uiso  ? N
   N9         1.0     0.102600     0.935390     0.859500    Uiso  ? N
   N10        1.0     0.400000     0.749400     0.558400    Uiso  ? N
   N11        1.0     0.243100     0.395700     0.697400    Uiso  ? N
   N12        1.0     0.100500     0.291600     0.769900    Uiso  ? N
   N13        1.0     0.261400     0.395400     0.306400    Uiso  ? N
   N14        1.0     0.100000     0.249400     0.441600    Uiso  ? N
   N15        1.0     0.101500     0.436100     0.854700    Uiso  ? N
   N16        1.0     0.743100     0.895700     0.697400    Uiso  ? N
   N17        1.0     0.600500     0.791600     0.769900    Uiso  ? N
   N18        1.0     0.761400     0.895400     0.306400    Uiso  ? N
   N19        1.0     0.600000     0.749400     0.441600    Uiso  ? N
   N20        1.0     0.601500     0.936100     0.854700    Uiso  ? N
   N21        1.0     0.243100     0.604300     0.697400    Uiso  ? N
   N22        1.0     0.261400     0.604600     0.306400    Uiso  ? N
   N23        1.0     0.100600     0.792400     0.768700    Uiso  ? N
   N24        1.0     0.397400     0.564610     0.140500    Uiso  ? N
   N25        1.0     0.100000     0.750600     0.441600    Uiso  ? N
   N26        1.0     0.743100     0.104300     0.697400    Uiso  ? N
   N27        1.0     0.761400     0.104600     0.306400    Uiso  ? N
   N28        1.0     0.600600     0.292400     0.768700    Uiso  ? N
   N29        1.0     0.897400     0.064610     0.140500    Uiso  ? N
   N30        1.0     0.600000     0.250600     0.441600    Uiso  ? N
   N31        1.0     0.756900     0.604300     0.302600    Uiso  ? N
   N32        1.0     0.899500     0.708400     0.230100    Uiso  ? N
   N33        1.0     0.738600     0.604600     0.693600    Uiso  ? N
   N34        1.0     0.900000     0.750600     0.558400    Uiso  ? N
   N35        1.0     0.898500     0.563900     0.145300    Uiso  ? N
   N36        1.0     0.256900     0.104300     0.302600    Uiso  ? N
   N37        1.0     0.399500     0.208400     0.230100    Uiso  ? N
   N38        1.0     0.238600     0.104600     0.693600    Uiso  ? N
   N39        1.0     0.400000     0.250600     0.558400    Uiso  ? N
   N40        1.0     0.398500     0.063900     0.145300    Uiso  ? N
   N41        1.0     0.615800     0.500000     0.385700    Uiso  ? N
   N42        1.0     0.878100     0.500000     0.637100    Uiso  ? N
   N43        1.0     0.115800     0.000000     0.385700    Uiso  ? N
   N44        1.0     0.378100     0.000000     0.637100    Uiso  ? N
   N45        1.0     0.384200     0.500000     0.614300    Uiso  ? N
   N46        1.0     0.121900     0.500000     0.362900    Uiso  ? N
   N47        1.0     0.884200     0.000000     0.614300    Uiso  ? N
   N48        1.0     0.621900     0.000000     0.362900    Uiso  ? N
   H1         1.0     0.602290     0.386500     0.859010    Uiso  ? H
   H2         1.0     0.585710     0.446510     0.038290    Uiso  ? H
   H3         1.0     0.528510     0.446510     0.899340    Uiso  ? H
   H4         1.0     0.683280     0.446460     0.026040    Uiso  ? H
   H5         1.0     0.688630     0.446460     0.877680    Uiso  ? H
   H6         1.0     0.594250     0.446700     0.654410    Uiso  ? H
   H7         1.0     0.533610     0.446700     0.670460    Uiso  ? H
   H8         1.0     0.895940     0.249120     0.458970    Uiso  ? H
   H9         1.0     0.837150     0.289480     0.744630    Uiso  ? H
   H10        1.0     0.836740     0.211470     0.744630    Uiso  ? H
   H11        1.0     0.920280     0.249980     0.917650    Uiso  ? H
   H12        1.0     0.910050     0.149780     0.593920    Uiso  ? H
   H13        1.0     0.969350     0.186090     0.616630    Uiso  ? H
   H14        1.0     0.821730     0.211070     0.518610    Uiso  ? H
   H15        1.0     0.822450     0.289740     0.518770    Uiso  ? H
   H16        1.0     0.968950     0.312570     0.613870    Uiso  ? H
   H17        1.0     0.909670     0.348880     0.590740    Uiso  ? H
   H18        1.0     0.988030     0.200250     0.832910    Uiso  ? H
   H19        1.0     0.935150     0.152870     0.814660    Uiso  ? H
   H20        1.0     0.935410     0.348020     0.812590    Uiso  ? H
   H21        1.0     0.988540     0.300670     0.832080    Uiso  ? H
   H22        1.0     0.899180     0.387180     0.147260    Uiso  ? H
   H23        1.0     0.971190     0.446330     0.096880    Uiso  ? H
   H24        1.0     0.912630     0.446330     0.961190    Uiso  ? H
   H25        1.0     0.965820     0.446900     0.329590    Uiso  ? H
   H26        1.0     0.904910     0.446900     0.344090    Uiso  ? H
   H27        1.0     0.817770     0.445790     0.974640    Uiso  ? H
   H28        1.0     0.810970     0.445790     0.121490    Uiso  ? H
   H29        1.0     0.102290     0.886500     0.859010    Uiso  ? H
   H30        1.0     0.085710     0.946510     0.038290    Uiso  ? H
   H31        1.0     0.028510     0.946510     0.899340    Uiso  ? H
   H32        1.0     0.183280     0.946460     0.026040    Uiso  ? H
   H33        1.0     0.188630     0.946460     0.877680    Uiso  ? H
   H34        1.0     0.094250     0.946700     0.654410    Uiso  ? H
   H35        1.0     0.033610     0.946700     0.670460    Uiso  ? H
   H36        1.0     0.395940     0.749120     0.458970    Uiso  ? H
   H37        1.0     0.337150     0.789480     0.744630    Uiso  ? H
   H38        1.0     0.336740     0.711470     0.744630    Uiso  ? H
   H39        1.0     0.420280     0.749980     0.917650    Uiso  ? H
   H40        1.0     0.410050     0.649780     0.593920    Uiso  ? H
   H41        1.0     0.469350     0.686090     0.616630    Uiso  ? H
   H42        1.0     0.321730     0.711070     0.518610    Uiso  ? H
   H43        1.0     0.322450     0.789740     0.518770    Uiso  ? H
   H44        1.0     0.468950     0.812570     0.613870    Uiso  ? H
   H45        1.0     0.409670     0.848880     0.590740    Uiso  ? H
   H46        1.0     0.488030     0.700250     0.832910    Uiso  ? H
   H47        1.0     0.435150     0.652870     0.814660    Uiso  ? H
   H48        1.0     0.435410     0.848020     0.812590    Uiso  ? H
   H49        1.0     0.488540     0.800670     0.832080    Uiso  ? H
   H50        1.0     0.399180     0.887180     0.147260    Uiso  ? H
   H51        1.0     0.471190     0.946330     0.096880    Uiso  ? H
   H52        1.0     0.412630     0.946330     0.961190    Uiso  ? H
   H53        1.0     0.465820     0.946900     0.329590    Uiso  ? H
   H54        1.0     0.404910     0.946900     0.344090    Uiso  ? H
   H55        1.0     0.317770     0.945790     0.974640    Uiso  ? H
   H56        1.0     0.310970     0.945790     0.121490    Uiso  ? H
   H57        1.0     0.397710     0.386500     0.140990    Uiso  ? H
   H58        1.0     0.414290     0.446510     0.961710    Uiso  ? H
   H59        1.0     0.471490     0.446510     0.100660    Uiso  ? H
   H60        1.0     0.316720     0.446460     0.973960    Uiso  ? H
   H61        1.0     0.311370     0.446460     0.122320    Uiso  ? H
   H62        1.0     0.405750     0.446700     0.345590    Uiso  ? H
   H63        1.0     0.466390     0.446700     0.329540    Uiso  ? H
   H64        1.0     0.104060     0.249120     0.541030    Uiso  ? H
   H65        1.0     0.162850     0.289480     0.255370    Uiso  ? H
   H66        1.0     0.163260     0.211470     0.255370    Uiso  ? H
   H67        1.0     0.079720     0.249980     0.082350    Uiso  ? H
   H68        1.0     0.089950     0.149780     0.406080    Uiso  ? H
   H69        1.0     0.030650     0.186090     0.383370    Uiso  ? H
   H70        1.0     0.178270     0.211070     0.481390    Uiso  ? H
   H71        1.0     0.177550     0.289740     0.481230    Uiso  ? H
   H72        1.0     0.031050     0.312570     0.386130    Uiso  ? H
   H73        1.0     0.090330     0.348880     0.409260    Uiso  ? H
   H74        1.0     0.011970     0.200250     0.167090    Uiso  ? H
   H75        1.0     0.064850     0.152870     0.185340    Uiso  ? H
   H76        1.0     0.064590     0.348020     0.187410    Uiso  ? H
   H77        1.0     0.011460     0.300670     0.167920    Uiso  ? H
   H78        1.0     0.100820     0.387180     0.852740    Uiso  ? H
   H79        1.0     0.028810     0.446330     0.903120    Uiso  ? H
   H80        1.0     0.087370     0.446330     0.038810    Uiso  ? H
   H81        1.0     0.034180     0.446900     0.670410    Uiso  ? H
   H82        1.0     0.095090     0.446900     0.655910    Uiso  ? H
   H83        1.0     0.182230     0.445790     0.025360    Uiso  ? H
   H84        1.0     0.189030     0.445790     0.878510    Uiso  ? H
   H85        1.0     0.897710     0.886500     0.140990    Uiso  ? H
   H86        1.0     0.914290     0.946510     0.961710    Uiso  ? H
   H87        1.0     0.971500     0.946510     0.100660    Uiso  ? H
   H88        1.0     0.816720     0.946460     0.973960    Uiso  ? H
   H89        1.0     0.811370     0.946460     0.122320    Uiso  ? H
   H90        1.0     0.905750     0.946700     0.345590    Uiso  ? H
   H91        1.0     0.966390     0.946700     0.329540    Uiso  ? H
   H92        1.0     0.604060     0.749120     0.541030    Uiso  ? H
   H93        1.0     0.662850     0.789480     0.255370    Uiso  ? H
   H94        1.0     0.663260     0.711470     0.255370    Uiso  ? H
   H95        1.0     0.579720     0.749980     0.082350    Uiso  ? H
   H96        1.0     0.589950     0.649780     0.406080    Uiso  ? H
   H97        1.0     0.530650     0.686090     0.383370    Uiso  ? H
   H98        1.0     0.678270     0.711070     0.481390    Uiso  ? H
   H99        1.0     0.677550     0.789740     0.481230    Uiso  ? H
   H100       1.0     0.531050     0.812570     0.386130    Uiso  ? H
   H101       1.0     0.590330     0.848880     0.409260    Uiso  ? H
   H102       1.0     0.511970     0.700250     0.167090    Uiso  ? H
   H103       1.0     0.564850     0.652870     0.185340    Uiso  ? H
   H104       1.0     0.564590     0.848020     0.187410    Uiso  ? H
   H105       1.0     0.511460     0.800670     0.167920    Uiso  ? H
   H106       1.0     0.600820     0.887180     0.852740    Uiso  ? H
   H107       1.0     0.528810     0.946330     0.903120    Uiso  ? H
   H108       1.0     0.587370     0.946330     0.038810    Uiso  ? H
   H109       1.0     0.534180     0.946900     0.670410    Uiso  ? H
   H110       1.0     0.595090     0.946900     0.655910    Uiso  ? H
   H111       1.0     0.682230     0.945790     0.025360    Uiso  ? H
   H112       1.0     0.689030     0.945790     0.878510    Uiso  ? H
   H113       1.0     0.397710     0.613500     0.140990    Uiso  ? H
   H114       1.0     0.414290     0.553490     0.961710    Uiso  ? H
   H115       1.0     0.471490     0.553490     0.100660    Uiso  ? H
   H116       1.0     0.316720     0.553540     0.973960    Uiso  ? H
   H117       1.0     0.311370     0.553540     0.122320    Uiso  ? H
   H118       1.0     0.405750     0.553300     0.345590    Uiso  ? H
   H119       1.0     0.466390     0.553300     0.329540    Uiso  ? H
   H120       1.0     0.104060     0.750880     0.541030    Uiso  ? H
   H121       1.0     0.162850     0.710520     0.255370    Uiso  ? H
   H122       1.0     0.163260     0.788530     0.255370    Uiso  ? H
   H123       1.0     0.079720     0.750020     0.082350    Uiso  ? H
   H124       1.0     0.089950     0.850220     0.406080    Uiso  ? H
   H125       1.0     0.030650     0.813910     0.383370    Uiso  ? H
   H126       1.0     0.178270     0.788930     0.481390    Uiso  ? H
   H127       1.0     0.177550     0.710260     0.481230    Uiso  ? H
   H128       1.0     0.031050     0.687430     0.386130    Uiso  ? H
   H129       1.0     0.090330     0.651120     0.409260    Uiso  ? H
   H130       1.0     0.011970     0.799750     0.167090    Uiso  ? H
   H131       1.0     0.064850     0.847130     0.185340    Uiso  ? H
   H132       1.0     0.064590     0.651980     0.187410    Uiso  ? H
   H133       1.0     0.011460     0.699330     0.167920    Uiso  ? H
   H134       1.0     0.100820     0.612820     0.852740    Uiso  ? H
   H135       1.0     0.028810     0.553670     0.903120    Uiso  ? H
   H136       1.0     0.087370     0.553670     0.038810    Uiso  ? H
   H137       1.0     0.034180     0.553100     0.670410    Uiso  ? H
   H138       1.0     0.095090     0.553100     0.655910    Uiso  ? H
   H139       1.0     0.182230     0.554210     0.025360    Uiso  ? H
   H140       1.0     0.189030     0.554210     0.878510    Uiso  ? H
   H141       1.0     0.897710     0.113500     0.140990    Uiso  ? H
   H142       1.0     0.914290     0.053490     0.961710    Uiso  ? H
   H143       1.0     0.971500     0.053490     0.100660    Uiso  ? H
   H144       1.0     0.816720     0.053540     0.973960    Uiso  ? H
   H145       1.0     0.811370     0.053540     0.122320    Uiso  ? H
   H146       1.0     0.905750     0.053300     0.345590    Uiso  ? H
   H147       1.0     0.966390     0.053300     0.329540    Uiso  ? H
   H148       1.0     0.604060     0.250880     0.541030    Uiso  ? H
   H149       1.0     0.662850     0.210520     0.255370    Uiso  ? H
   H150       1.0     0.663260     0.288530     0.255370    Uiso  ? H
   H151       1.0     0.579720     0.250020     0.082350    Uiso  ? H
   H152       1.0     0.589950     0.350220     0.406080    Uiso  ? H
   H153       1.0     0.530650     0.313910     0.383370    Uiso  ? H
   H154       1.0     0.678270     0.288930     0.481390    Uiso  ? H
   H155       1.0     0.677550     0.210260     0.481230    Uiso  ? H
   H156       1.0     0.531050     0.187430     0.386130    Uiso  ? H
   H157       1.0     0.590330     0.151120     0.409260    Uiso  ? H
   H158       1.0     0.511970     0.299750     0.167090    Uiso  ? H
   H159       1.0     0.564850     0.347130     0.185340    Uiso  ? H
   H160       1.0     0.564590     0.151980     0.187410    Uiso  ? H
   H161       1.0     0.511460     0.199330     0.167920    Uiso  ? H
   H162       1.0     0.600820     0.112820     0.852740    Uiso  ? H
   H163       1.0     0.528810     0.053670     0.903120    Uiso  ? H
   H164       1.0     0.587370     0.053670     0.038810    Uiso  ? H
   H165       1.0     0.534180     0.053100     0.670410    Uiso  ? H
   H166       1.0     0.595090     0.053100     0.655910    Uiso  ? H
   H167       1.0     0.682230     0.054210     0.025360    Uiso  ? H
   H168       1.0     0.689030     0.054210     0.878510    Uiso  ? H
   H169       1.0     0.602290     0.613500     0.859010    Uiso  ? H
   H170       1.0     0.585710     0.553490     0.038290    Uiso  ? H
   H171       1.0     0.528510     0.553490     0.899340    Uiso  ? H
   H172       1.0     0.683280     0.553540     0.026040    Uiso  ? H
   H173       1.0     0.688630     0.553540     0.877680    Uiso  ? H
   H174       1.0     0.594250     0.553300     0.654410    Uiso  ? H
   H175       1.0     0.533610     0.553300     0.670460    Uiso  ? H
   H176       1.0     0.895940     0.750880     0.458970    Uiso  ? H
   H177       1.0     0.837150     0.710520     0.744630    Uiso  ? H
   H178       1.0     0.836740     0.788530     0.744630    Uiso  ? H
   H179       1.0     0.920280     0.750020     0.917650    Uiso  ? H
   H180       1.0     0.910050     0.850220     0.593920    Uiso  ? H
   H181       1.0     0.969350     0.813910     0.616630    Uiso  ? H
   H182       1.0     0.821730     0.788930     0.518610    Uiso  ? H
   H183       1.0     0.822450     0.710260     0.518770    Uiso  ? H
   H184       1.0     0.968950     0.687430     0.613870    Uiso  ? H
   H185       1.0     0.909670     0.651120     0.590740    Uiso  ? H
   H186       1.0     0.988030     0.799750     0.832910    Uiso  ? H
   H187       1.0     0.935150     0.847130     0.814660    Uiso  ? H
   H188       1.0     0.935410     0.651980     0.812590    Uiso  ? H
   H189       1.0     0.988540     0.699330     0.832080    Uiso  ? H
   H190       1.0     0.899180     0.612820     0.147260    Uiso  ? H
   H191       1.0     0.971190     0.553670     0.096880    Uiso  ? H
   H192       1.0     0.912630     0.553670     0.961190    Uiso  ? H
   H193       1.0     0.965820     0.553100     0.329590    Uiso  ? H
   H194       1.0     0.904910     0.553100     0.344090    Uiso  ? H
   H195       1.0     0.817770     0.554210     0.974640    Uiso  ? H
   H196       1.0     0.810970     0.554210     0.121490    Uiso  ? H
   H197       1.0     0.102290     0.113500     0.859010    Uiso  ? H
   H198       1.0     0.085710     0.053490     0.038290    Uiso  ? H
   H199       1.0     0.028510     0.053490     0.899340    Uiso  ? H
   H200       1.0     0.183280     0.053540     0.026040    Uiso  ? H
   H201       1.0     0.188630     0.053540     0.877680    Uiso  ? H
   H202       1.0     0.094250     0.053300     0.654410    Uiso  ? H
   H203       1.0     0.033610     0.053300     0.670460    Uiso  ? H
   H204       1.0     0.395940     0.250880     0.458970    Uiso  ? H
   H205       1.0     0.337150     0.210520     0.744630    Uiso  ? H
   H206       1.0     0.336740     0.288530     0.744630    Uiso  ? H
   H207       1.0     0.420280     0.250020     0.917650    Uiso  ? H
   H208       1.0     0.410050     0.350220     0.593920    Uiso  ? H
   H209       1.0     0.469350     0.313910     0.616630    Uiso  ? H
   H210       1.0     0.321730     0.288930     0.518610    Uiso  ? H
   H211       1.0     0.322450     0.210260     0.518770    Uiso  ? H
   H212       1.0     0.468950     0.187430     0.613870    Uiso  ? H
   H213       1.0     0.409670     0.151120     0.590740    Uiso  ? H
   H214       1.0     0.488030     0.299750     0.832910    Uiso  ? H
   H215       1.0     0.435150     0.347130     0.814660    Uiso  ? H
   H216       1.0     0.435410     0.151980     0.812590    Uiso  ? H
   H217       1.0     0.488540     0.199330     0.832080    Uiso  ? H
   H218       1.0     0.399180     0.112820     0.147260    Uiso  ? H
   H219       1.0     0.471190     0.053670     0.096880    Uiso  ? H
   H220       1.0     0.412630     0.053670     0.961190    Uiso  ? H
   H221       1.0     0.465820     0.053100     0.329590    Uiso  ? H
   H222       1.0     0.404910     0.053100     0.344090    Uiso  ? H
   H223       1.0     0.317770     0.054210     0.974640    Uiso  ? H
   H224       1.0     0.310970     0.054210     0.121490    Uiso  ? H
   C1         1.0     0.568600     0.462550     0.941200    Uiso  ? C
   C2         1.0     0.665500     0.462610     0.929100    Uiso  ? C
   C3         1.0     0.573700     0.462710     0.712300    Uiso  ? C
   C4         1.0     0.855600     0.250300     0.724400    Uiso  ? C
   C5         1.0     0.915200     0.249900     0.817500    Uiso  ? C
   C6         1.0     0.933100     0.189500     0.632200    Uiso  ? C
   C7         1.0     0.844100     0.250200     0.564800    Uiso  ? C
   C8         1.0     0.932900     0.309400     0.630200    Uiso  ? C
   C9         1.0     0.946100     0.194300     0.782400    Uiso  ? C
   C10        1.0     0.946600     0.306300     0.781700    Uiso  ? C
   C11        1.0     0.898500     0.436100     0.145300    Uiso  ? C
   C12        1.0     0.931100     0.462520     0.057900    Uiso  ? C
   C13        1.0     0.925700     0.462850     0.286800    Uiso  ? C
   C14        1.0     0.834700     0.462100     0.071500    Uiso  ? C
   C15        1.0     0.068600     0.962550     0.941200    Uiso  ? C
   C16        1.0     0.165500     0.962610     0.929100    Uiso  ? C
   C17        1.0     0.073700     0.962710     0.712300    Uiso  ? C
   C18        1.0     0.355600     0.750300     0.724400    Uiso  ? C
   C19        1.0     0.415200     0.749900     0.817500    Uiso  ? C
   C20        1.0     0.433100     0.689500     0.632200    Uiso  ? C
   C21        1.0     0.344100     0.750200     0.564800    Uiso  ? C
   C22        1.0     0.432900     0.809400     0.630200    Uiso  ? C
   C23        1.0     0.446100     0.694300     0.782400    Uiso  ? C
   C24        1.0     0.446600     0.806300     0.781700    Uiso  ? C
   C25        1.0     0.398500     0.936100     0.145300    Uiso  ? C
   C26        1.0     0.431100     0.962520     0.057900    Uiso  ? C
   C27        1.0     0.425700     0.962850     0.286800    Uiso  ? C
   C28        1.0     0.334700     0.962100     0.071500    Uiso  ? C
   C29        1.0     0.397400     0.435390     0.140500    Uiso  ? C
   C30        1.0     0.431400     0.462550     0.058800    Uiso  ? C
   C31        1.0     0.334500     0.462610     0.070900    Uiso  ? C
   C32        1.0     0.426300     0.462710     0.287700    Uiso  ? C
   C33        1.0     0.144400     0.250300     0.275600    Uiso  ? C
   C34        1.0     0.084800     0.249900     0.182500    Uiso  ? C
   C35        1.0     0.066900     0.189500     0.367800    Uiso  ? C
   C36        1.0     0.155900     0.250200     0.435200    Uiso  ? C
   C37        1.0     0.067100     0.309400     0.369800    Uiso  ? C
   C38        1.0     0.053900     0.194300     0.217600    Uiso  ? C
   C39        1.0     0.053400     0.306300     0.218300    Uiso  ? C
   C40        1.0     0.068900     0.462520     0.942100    Uiso  ? C
   C41        1.0     0.074300     0.462850     0.713200    Uiso  ? C
   C42        1.0     0.165300     0.462100     0.928500    Uiso  ? C
   C43        1.0     0.897400     0.935390     0.140500    Uiso  ? C
   C44        1.0     0.931400     0.962550     0.058800    Uiso  ? C
   C45        1.0     0.834500     0.962610     0.070900    Uiso  ? C
   C46        1.0     0.926300     0.962710     0.287700    Uiso  ? C
   C47        1.0     0.644400     0.750300     0.275600    Uiso  ? C
   C48        1.0     0.584800     0.749900     0.182500    Uiso  ? C
   C49        1.0     0.566900     0.689500     0.367800    Uiso  ? C
   C50        1.0     0.655900     0.750200     0.435200    Uiso  ? C
   C51        1.0     0.567100     0.809400     0.369800    Uiso  ? C
   C52        1.0     0.553900     0.694300     0.217600    Uiso  ? C
   C53        1.0     0.553400     0.806300     0.218300    Uiso  ? C
   C54        1.0     0.568900     0.962520     0.942100    Uiso  ? C
   C55        1.0     0.574300     0.962850     0.713200    Uiso  ? C
   C56        1.0     0.665300     0.962100     0.928500    Uiso  ? C
   C57        1.0     0.431400     0.537450     0.058800    Uiso  ? C
   C58        1.0     0.334500     0.537390     0.070900    Uiso  ? C
   C59        1.0     0.426300     0.537290     0.287700    Uiso  ? C
   C60        1.0     0.144400     0.749700     0.275600    Uiso  ? C
   C61        1.0     0.084800     0.750100     0.182500    Uiso  ? C
   C62        1.0     0.066900     0.810500     0.367800    Uiso  ? C
   C63        1.0     0.155900     0.749800     0.435200    Uiso  ? C
   C64        1.0     0.067100     0.690600     0.369800    Uiso  ? C
   C65        1.0     0.053900     0.805700     0.217600    Uiso  ? C
   C66        1.0     0.053400     0.693700     0.218300    Uiso  ? C
   C67        1.0     0.101500     0.563900     0.854700    Uiso  ? C
   C68        1.0     0.068900     0.537480     0.942100    Uiso  ? C
   C69        1.0     0.074300     0.537150     0.713200    Uiso  ? C
   C70        1.0     0.165300     0.537900     0.928500    Uiso  ? C
   C71        1.0     0.931400     0.037450     0.058800    Uiso  ? C
   C72        1.0     0.834500     0.037390     0.070900    Uiso  ? C
   C73        1.0     0.926300     0.037290     0.287700    Uiso  ? C
   C74        1.0     0.644400     0.249700     0.275600    Uiso  ? C
   C75        1.0     0.584800     0.250100     0.182500    Uiso  ? C
   C76        1.0     0.566900     0.310500     0.367800    Uiso  ? C
   C77        1.0     0.655900     0.249800     0.435200    Uiso  ? C
   C78        1.0     0.567100     0.190600     0.369800    Uiso  ? C
   C79        1.0     0.553900     0.305700     0.217600    Uiso  ? C
   C80        1.0     0.553400     0.193700     0.218300    Uiso  ? C
   C81        1.0     0.601500     0.063900     0.854700    Uiso  ? C
   C82        1.0     0.568900     0.037480     0.942100    Uiso  ? C
   C83        1.0     0.574300     0.037150     0.713200    Uiso  ? C
   C84        1.0     0.665300     0.037900     0.928500    Uiso  ? C
   C85        1.0     0.602600     0.564610     0.859500    Uiso  ? C
   C86        1.0     0.568600     0.537450     0.941200    Uiso  ? C
   C87        1.0     0.665500     0.537390     0.929100    Uiso  ? C
   C88        1.0     0.573700     0.537290     0.712300    Uiso  ? C
   C89        1.0     0.855600     0.749700     0.724400    Uiso  ? C
   C90        1.0     0.915200     0.750100     0.817500    Uiso  ? C
   C91        1.0     0.933100     0.810500     0.632200    Uiso  ? C
   C92        1.0     0.844100     0.749800     0.564800    Uiso  ? C
   C93        1.0     0.932900     0.690600     0.630200    Uiso  ? C
   C94        1.0     0.946100     0.805700     0.782400    Uiso  ? C
   C95        1.0     0.946600     0.693700     0.781700    Uiso  ? C
   C96        1.0     0.931100     0.537480     0.057900    Uiso  ? C
   C97        1.0     0.925700     0.537150     0.286800    Uiso  ? C
   C98        1.0     0.834700     0.537900     0.071500    Uiso  ? C
   C99        1.0     0.102600     0.064610     0.859500    Uiso  ? C
   C100       1.0     0.068600     0.037450     0.941200    Uiso  ? C
   C101       1.0     0.165500     0.037390     0.929100    Uiso  ? C
   C102       1.0     0.073700     0.037290     0.712300    Uiso  ? C
   C103       1.0     0.355600     0.249700     0.724400    Uiso  ? C
   C104       1.0     0.415200     0.250100     0.817500    Uiso  ? C
   C105       1.0     0.433100     0.310500     0.632200    Uiso  ? C
   C106       1.0     0.344100     0.249800     0.564800    Uiso  ? C
   C107       1.0     0.432900     0.190600     0.630200    Uiso  ? C
   C108       1.0     0.446100     0.305700     0.782400    Uiso  ? C
   C109       1.0     0.446600     0.193700     0.781700    Uiso  ? C
   C110       1.0     0.431100     0.037480     0.057900    Uiso  ? C
   C111       1.0     0.425700     0.037150     0.286800    Uiso  ? C
   C112       1.0     0.334700     0.037900     0.071500    Uiso  ? C
   Tb1        1.0     0.750040     0.500000     0.500110    Uiso  ? Tb
   Tb2        1.0     0.250040     0.000000     0.500110    Uiso  ? Tb
   Tb3        1.0     0.249960     0.500000     0.499890    Uiso  ? Tb
   Tb4        1.0     0.749960     0.000000     0.499890    Uiso  ? Tb
   Cs1        1.0     0.750000     0.250000     0.000000    Uiso  ? Cs
   Cs2        1.0     0.250000     0.250000     0.000000    Uiso  ? Cs
   Cs3        1.0     0.250000     0.750000     0.000000    Uiso  ? Cs
   Cs4        1.0     0.750000     0.750000     0.000000    Uiso  ? Cs
