 
data_mo_r3hq_prk_353k_0m_a
 
_audit_creation_method            'SHELXL-2019/3'
_shelx_SHELXL_version_number      '2019/3'
_chemical_name_systematic         ?
_chemical_name_common             ?
_chemical_melting_point           ?
_chemical_formula_moiety          ?
_chemical_formula_sum
 'C28 K N12 O28 Pr' 
_chemical_formula_weight          1132.41

loop_
 _atom_type_symbol
 _atom_type_description
 _atom_type_scat_dispersion_real
 _atom_type_scat_dispersion_imag
 _atom_type_scat_source
 'C'  'C'   0.0033   0.0016
 'International Tables Vol C Tables 4.2.6.8 and 6.1.1.4'
 'K'  'K'   0.2009   0.2494
 'International Tables Vol C Tables 4.2.6.8 and 6.1.1.4'
 'N'  'N'   0.0061   0.0033
 'International Tables Vol C Tables 4.2.6.8 and 6.1.1.4'
 'O'  'O'   0.0106   0.0060
 'International Tables Vol C Tables 4.2.6.8 and 6.1.1.4'
 'Pr'  'Pr'  -0.2180   2.8214
 'International Tables Vol C Tables 4.2.6.8 and 6.1.1.4'
 
_space_group_crystal_system       orthorhombic
_space_group_IT_number            18
_space_group_name_H-M_alt         'P 21 21 2'
_space_group_name_Hall            'P 2 2ab'
 
_shelx_space_group_comment
;
The symmetry employed for this shelxl refinement is uniquely defined
by the following loop, which should always be used as a source of
symmetry information in preference to the above space-group names.
They are only intended as comments.
;
 
loop_
 _space_group_symop_operation_xyz
 'x, y, z'
 '-x, -y, z'
 '-x+1/2, y+1/2, -z'
 'x+1/2, -y+1/2, -z'
 
_cell_length_a                    9.9188(6)
_cell_length_b                    24.426(2)
_cell_length_c                    9.8593(8)
_cell_angle_alpha                 90
_cell_angle_beta                  90
_cell_angle_gamma                 90
_cell_volume                      2388.6(3)
_cell_formula_units_Z             2
_cell_measurement_temperature     353(2)
_cell_measurement_reflns_used     ?
_cell_measurement_theta_min       ?
_cell_measurement_theta_max       ?
 
_exptl_crystal_description        ?
_exptl_crystal_colour             ?
_exptl_crystal_density_meas       ?
_exptl_crystal_density_method     ?
_exptl_crystal_density_diffrn     1.574          
_exptl_crystal_F_000              1108
_exptl_transmission_factor_min    ?
_exptl_transmission_factor_max    ?
_exptl_crystal_size_max           0.110
_exptl_crystal_size_mid           0.100
_exptl_crystal_size_min           0.100
_exptl_absorpt_coefficient_mu     1.207
_shelx_estimated_absorpt_T_min    0.879
_shelx_estimated_absorpt_T_max    0.889
_exptl_absorpt_correction_type    ?
_exptl_absorpt_correction_T_min   ?
_exptl_absorpt_correction_T_max   ?
_exptl_absorpt_process_details    ?
_exptl_absorpt_special_details    ?
_diffrn_ambient_temperature       353(2)
_diffrn_radiation_wavelength      0.71073
_diffrn_radiation_type            MoK\a
_diffrn_source                    ?
_diffrn_measurement_device_type   ?
_diffrn_measurement_method        ?
_diffrn_detector_area_resol_mean  ?
_diffrn_reflns_number             29188
_diffrn_reflns_av_unetI/netI      0.0968
_diffrn_reflns_av_R_equivalents   0.1634
_diffrn_reflns_limit_h_min        -11
_diffrn_reflns_limit_h_max        11
_diffrn_reflns_limit_k_min        -29
_diffrn_reflns_limit_k_max        29
_diffrn_reflns_limit_l_min        -11
_diffrn_reflns_limit_l_max        11
_diffrn_reflns_theta_min          2.066
_diffrn_reflns_theta_max          25.416
_diffrn_reflns_theta_full         25.242
_diffrn_measured_fraction_theta_max   0.996
_diffrn_measured_fraction_theta_full  0.998
_diffrn_reflns_Laue_measured_fraction_max    0.996
_diffrn_reflns_Laue_measured_fraction_full   0.998
_diffrn_reflns_point_group_measured_fraction_max   0.995
_diffrn_reflns_point_group_measured_fraction_full  0.998
_reflns_number_total              4371
_reflns_number_gt                 2276
_reflns_threshold_expression      'I > 2\s(I)'
_reflns_Friedel_coverage          0.745
_reflns_Friedel_fraction_max      0.993
_reflns_Friedel_fraction_full     0.998
 
_reflns_special_details
;
 Reflections were merged by SHELXL according to the crystal
 class for the calculation of statistics and refinement.
 
 _reflns_Friedel_fraction is defined as the number of unique
 Friedel pairs measured divided by the number that would be
 possible theoretically, ignoring centric projections and
 systematic absences. Completness statistics refer to single and
 composite reflections containing twin component 1 only.
;
 
_computing_data_collection        ?
_computing_cell_refinement        ?
_computing_data_reduction         ?
_computing_structure_solution     'SHELXT 2018/2 (Sheldrick, 2018)'
_computing_structure_refinement 'SHELXL-2019/2 (Sheldrick, 2019)'
_computing_molecular_graphics     ?
_computing_publication_material   ?
_refine_special_details
;
 Refined as a 2-component inversion twin.
;
_refine_ls_structure_factor_coef  Fsqd
_refine_ls_matrix_type            full
_refine_ls_weighting_scheme       calc
_refine_ls_weighting_details
'w=1/[\s^2^(Fo^2^)+(0.1189P)^2^] where P=(Fo^2^+2Fc^2^)/3'
_atom_sites_solution_primary      ?
_atom_sites_solution_secondary    ?
_atom_sites_solution_hydrogens    .
_refine_ls_hydrogen_treatment     undef
_refine_ls_extinction_method      none
_refine_ls_extinction_coef        .
_refine_ls_abs_structure_details
;
 Refined as an inversion twin.
;
_refine_ls_abs_structure_Flack    0.49(5)
_chemical_absolute_configuration  ?
_refine_ls_number_reflns          4371
_refine_ls_number_parameters      427
_refine_ls_number_restraints      727
_refine_ls_R_factor_all           0.1194
_refine_ls_R_factor_gt            0.0665
_refine_ls_wR_factor_ref          0.2100
_refine_ls_wR_factor_gt           0.1740
_refine_ls_goodness_of_fit_ref    0.988
_refine_ls_restrained_S_all       0.982
_refine_ls_shift/su_max           0.005
_refine_ls_shift/su_mean          0.000
 
loop_
 _atom_site_label
 _atom_site_type_symbol
 _atom_site_fract_x
 _atom_site_fract_y
 _atom_site_fract_z
 _atom_site_U_iso_or_equiv
 _atom_site_adp_type
 _atom_site_occupancy
 _atom_site_site_symmetry_order  
 _atom_site_calc_flag
 _atom_site_refinement_flags_posn
 _atom_site_refinement_flags_adp
 _atom_site_refinement_flags_occupancy
 _atom_site_disorder_assembly
 _atom_site_disorder_group
Pr1 Pr 0.500000 0.500000 -0.00127(5) 0.04216(11) Uani 1 2 d S TU P . .
K1 K 1.000000 0.500000 0.5001(2) 0.0631(6) Uani 1 2 d S TU P . .
O1 O 0.5758(5) 0.5976(2) 0.0738(6) 0.0682(15) Uani 1 1 d . U . . .
O2 O 1.0325(9) 0.6096(5) 0.5933(11) 0.132(2) Uani 0.519(2) 1 d D U P A 1
O3 O 0.6594(8) 0.5405(5) -0.1638(10) 0.0659(18) Uani 0.5 1 d . U P . .
O4 O 0.6701(9) 0.4627(5) -0.1863(11) 0.0701(17) Uani 0.5 1 d . U P . .
O6 O 0.4981(5) 0.6734(3) -0.0037(5) 0.124(3) Uani 1 1 d . U . . .
O7 O 0.8799(10) 0.6049(4) 0.4483(10) 0.130(2) Uani 0.519(2) 1 d D U P A 1
O8 O 0.4232(5) 0.5967(2) -0.0751(6) 0.0754(16) Uani 1 1 d . U . . .
O9 O 1.0682(14) 0.6742(6) 0.4435(15) 0.136(2) Uani 0.481(2) 1 d D U P A 2
O10 O 0.8069(5) 0.4868(2) -0.3096(5) 0.0881(17) Uani 1 1 d . U . . .
O12 O 0.7991(5) 0.5132(2) 0.2998(6) 0.0896(18) Uani 1 1 d . U . . .
O13 O 1.1250(13) 0.6064(6) 0.5335(14) 0.1323(19) Uani 0.481(2) 1 d D U P A 2
O14 O 0.6787(10) 0.5446(5) 0.1789(11) 0.0699(17) Uani 0.5 1 d . U P . .
O15 O 0.9682(13) 0.6130(6) 0.4241(16) 0.1324(18) Uani 0.481(2) 1 d D U P A 2
O16 O 0.5885(8) 0.4932(5) 0.2443(9) 0.068(2) Uani 0.5 1 d . U P . .
O17 O 0.9338(14) 0.6841(3) 0.5610(14) 0.155(4) Uani 0.519(2) 1 d D U P A 1
O18 O 0.7468(8) 0.5058(5) -0.0952(10) 0.0666(18) Uani 0.5 1 d . U P . .
O20 O 0.5971(7) 0.5061(5) -0.2498(8) 0.0671(19) Uani 0.5 1 d . U P . .
O22 O 0.7435(8) 0.4954(5) 0.0890(10) 0.0697(18) Uani 0.5 1 d . U P . .
O23 O 0.6707(9) 0.4527(5) 0.1593(11) 0.067(2) Uani 0.5 1 d . U P . .
N1 N 0.7076(5) 0.5066(3) 0.2097(6) 0.0662(14) Uani 1 1 d . U . . .
N3 N 0.9442(9) 0.6352(3) 0.5281(9) 0.1314(18) Uani 0.519(2) 1 d D U P A 1
N4 N 0.5002(5) 0.6230(3) -0.0032(5) 0.0758(16) Uani 1 1 d . U . . .
N5 N 1.0431(17) 0.6304(8) 0.4728(15) 0.1322(18) Uani 0.481(2) 1 d . U P A 2
N6 N 0.7223(5) 0.4922(3) -0.2237(6) 0.0657(13) Uani 1 1 d . U . . .
O5 O 1.1048(16) 0.7118(3) -0.114(2) 0.210(6) Uani 0.5 1 d D U P . .
O19 O 0.8994(15) 0.7117(4) 0.113(2) 0.226(7) Uani 0.5 1 d D U P . .
N2 N 1.0050(6) 0.6480(2) 0.1157(6) 0.182(2) Uani 1 1 d D U . . .
C2 C 0.8782(8) 0.6799(4) -0.0512(7) 0.177(3) Uani 1 1 d D U . . .
C3 C 0.9485(11) 0.6000(4) -0.0595(10) 0.195(2) Uani 0.5 1 d D U P B 1
C5 C 1.1277(7) 0.6555(3) -0.0949(8) 0.181(3) Uani 1 1 d D U . . .
C7 C 1.001(2) 0.5889(3) 0.0737(8) 0.195(2) Uani 0.5 1 d D U P B 2
C9 C 1.1187(8) 0.6779(4) 0.0470(7) 0.179(3) Uani 1 1 d D U . . .
C11 C 0.8565(7) 0.6576(3) 0.0890(8) 0.181(3) Uani 1 1 d D U . . .
C13 C 1.0548(11) 0.5967(4) 0.0479(10) 0.194(2) Uani 0.5 1 d D U P B 1
C15 C 0.980(2) 0.5950(3) -0.0759(6) 0.195(2) Uani 0.5 1 d D U P B 2
C16 C 0.9830(6) 0.6514(3) -0.1347(8) 0.176(3) Uani 1 1 d D U . . .
O11 O 0.4006(16) 0.7357(4) 0.401(2) 0.248(5) Uani 0.5 1 d D U P C 1
O21 O 0.5971(18) 0.7394(3) 0.613(2) 0.257(5) Uani 0.5 1 d D U P D 2
N7 N 0.3785(8) 0.6498(3) 0.4847(6) 0.204(2) Uani 1 1 d D U . . .
C1 C 0.5657(7) 0.6833(3) 0.6209(9) 0.198(3) Uani 1 1 d D U . . .
C4 C 0.4224(7) 0.6640(5) 0.6255(7) 0.202(3) Uani 1 1 d D U . . .
C6 C 0.4487(7) 0.6823(3) 0.3769(9) 0.206(3) Uani 1 1 d D U . . .
C8 C 0.5921(7) 0.6624(6) 0.3732(7) 0.203(3) Uani 1 1 d D U . . .
C10 C 0.6361(9) 0.6503(3) 0.5156(6) 0.201(2) Uani 1 1 d D U . . .
C12 C 0.4369(8) 0.5943(3) 0.4588(9) 0.206(3) Uani 1 1 d D U . . .
C14 C 0.5617(8) 0.5983(4) 0.5450(9) 0.208(3) Uani 1 1 d D U . . .
 
loop_
 _atom_site_aniso_label
 _atom_site_aniso_U_11
 _atom_site_aniso_U_22
 _atom_site_aniso_U_33
 _atom_site_aniso_U_23
 _atom_site_aniso_U_13
 _atom_site_aniso_U_12
Pr1 0.03436(18) 0.0576(2) 0.03451(19) 0.000 0.000 0.00991(19)
K1 0.0470(9) 0.0951(14) 0.0474(10) 0.000 0.000 0.0032(10)
O1 0.077(3) 0.063(3) 0.064(3) 0.004(3) -0.012(3) 0.000(2)
O2 0.132(4) 0.123(3) 0.142(4) -0.012(3) 0.000(3) -0.008(3)
O3 0.053(3) 0.089(4) 0.055(3) -0.005(3) 0.024(3) 0.003(3)
O4 0.057(3) 0.090(3) 0.064(3) -0.005(3) 0.027(3) 0.005(3)
O6 0.169(7) 0.066(3) 0.138(6) -0.002(5) -0.022(13) 0.023(3)
O7 0.130(4) 0.118(4) 0.141(4) -0.004(4) -0.002(4) 0.003(3)
O8 0.068(3) 0.072(3) 0.086(3) 0.024(3) -0.014(3) 0.021(2)
O9 0.138(4) 0.126(3) 0.145(4) -0.004(3) 0.004(3) -0.006(3)
O10 0.077(2) 0.099(4) 0.089(3) -0.010(3) 0.057(2) 0.016(3)
O12 0.098(3) 0.085(4) 0.085(3) 0.010(3) -0.033(3) 0.006(3)
O13 0.135(3) 0.122(3) 0.140(3) -0.005(3) 0.002(3) -0.012(3)
O14 0.071(3) 0.073(3) 0.066(3) 0.002(3) -0.019(3) -0.001(3)
O15 0.131(3) 0.122(3) 0.145(3) -0.002(3) 0.002(3) -0.006(3)
O16 0.069(3) 0.077(4) 0.058(3) 0.008(4) -0.007(3) 0.005(4)
O17 0.166(7) 0.138(5) 0.159(7) -0.017(6) 0.001(7) 0.002(7)
O18 0.045(3) 0.089(4) 0.066(3) -0.002(4) 0.013(3) 0.009(3)
O20 0.057(3) 0.090(4) 0.054(3) -0.005(4) 0.020(3) 0.002(4)
O22 0.059(3) 0.078(4) 0.072(3) 0.002(4) -0.011(3) 0.010(3)
O23 0.062(4) 0.070(4) 0.069(4) 0.008(3) -0.017(3) 0.008(3)
N1 0.061(2) 0.073(3) 0.064(2) 0.006(3) -0.022(2) 0.006(2)
N3 0.132(3) 0.121(3) 0.141(3) -0.005(3) 0.003(3) -0.005(3)
N4 0.082(3) 0.064(3) 0.081(3) 0.020(3) -0.015(4) 0.009(2)
N5 0.133(3) 0.122(3) 0.142(3) -0.006(3) 0.001(3) -0.004(3)
N6 0.050(2) 0.088(3) 0.059(2) -0.008(3) 0.0321(19) 0.011(2)
O5 0.197(12) 0.225(7) 0.209(12) 0.013(10) -0.006(12) 0.005(9)
O19 0.231(13) 0.221(8) 0.226(12) -0.014(11) 0.006(12) 0.010(9)
N2 0.141(4) 0.216(4) 0.190(5) 0.009(4) 0.034(4) -0.003(4)
C2 0.135(5) 0.209(5) 0.186(5) 0.012(5) 0.035(4) 0.025(5)
C3 0.189(4) 0.193(4) 0.202(4) 0.001(4) 0.000(4) 0.002(4)
C5 0.140(4) 0.218(5) 0.186(5) 0.001(5) 0.046(5) 0.016(5)
C7 0.189(4) 0.195(4) 0.202(4) 0.005(4) 0.001(4) 0.005(4)
C9 0.137(5) 0.214(5) 0.186(5) 0.004(5) 0.041(5) 0.002(5)
C11 0.138(4) 0.216(5) 0.187(5) 0.012(5) 0.034(5) 0.009(4)
C13 0.189(4) 0.193(4) 0.201(4) 0.003(4) 0.001(4) 0.007(4)
C15 0.189(4) 0.194(4) 0.203(4) -0.001(4) 0.001(4) 0.004(4)
C16 0.138(4) 0.212(4) 0.179(5) 0.004(4) 0.041(4) 0.019(5)
O11 0.242(9) 0.247(6) 0.254(10) 0.004(7) 0.008(8) 0.004(6)
O21 0.259(9) 0.259(6) 0.252(10) -0.001(7) -0.008(8) -0.008(7)
N7 0.227(4) 0.263(4) 0.122(4) -0.006(4) 0.035(4) -0.002(4)
C1 0.228(5) 0.256(5) 0.110(5) -0.021(5) 0.037(5) 0.003(5)
C4 0.231(5) 0.260(6) 0.117(4) -0.020(5) 0.041(5) 0.005(5)
C6 0.228(5) 0.265(5) 0.126(5) -0.001(5) 0.041(5) 0.005(5)
C8 0.225(5) 0.267(6) 0.117(4) -0.009(5) 0.044(5) 0.009(5)
C10 0.226(4) 0.261(4) 0.117(4) -0.013(4) 0.038(4) 0.009(4)
C12 0.239(5) 0.256(5) 0.124(5) -0.012(5) 0.025(5) -0.001(5)
C14 0.239(5) 0.258(5) 0.128(5) -0.006(5) 0.024(5) 0.010(5)
 
_geom_special_details
;
 All esds (except the esd in the dihedral angle between two l.s. planes)
 are estimated using the full covariance matrix.  The cell esds are taken
 into account individually in the estimation of esds in distances, angles
 and torsion angles; correlations between esds in cell parameters are only
 used when they are defined by crystal symmetry.  An approximate (isotropic)
 treatment of cell esds is used for estimating esds involving l.s. planes.
;
 
loop_
 _geom_bond_atom_site_label_1
 _geom_bond_atom_site_label_2
 _geom_bond_distance
 _geom_bond_site_symmetry_2
 _geom_bond_publ_flag
Pr1 O3 2.459(9) . ?
Pr1 O3 2.459(9) 2_665 ?
Pr1 O22 2.577(8) 2_665 ?
Pr1 O22 2.577(8) . ?
Pr1 O16 2.581(9) . ?
Pr1 O16 2.581(9) 2_665 ?
Pr1 O8 2.586(5) . ?
Pr1 O8 2.586(5) 2_665 ?
Pr1 O23 2.590(10) . ?
Pr1 O23 2.590(10) 2_665 ?
Pr1 O1 2.607(5) . ?
Pr1 O1 2.607(5) 2_665 ?
Pr1 O18 2.621(8) . ?
Pr1 O18 2.621(8) 2_665 ?
Pr1 O20 2.637(8) 2_665 ?
Pr1 O20 2.637(8) . ?
Pr1 O4 2.647(10) 2_665 ?
Pr1 O4 2.647(10) . ?
Pr1 O14 2.736(10) . ?
Pr1 O14 2.736(10) 2_665 ?
Pr1 N1 2.931(5) 2_665 ?
Pr1 N1 2.931(5) . ?
K1 O10 2.700(5) 2_766 ?
K1 O10 2.700(5) 1_556 ?
K1 O12 2.824(6) 2_765 ?
K1 O12 2.824(6) . ?
K1 O2 2.849(12) . ?
K1 O2 2.849(12) 2_765 ?
K1 O7 2.872(11) 2_765 ?
K1 O7 2.872(11) . ?
K1 O15 2.876(15) . ?
K1 O15 2.876(15) 2_765 ?
K1 O13 2.897(15) 2_765 ?
K1 O13 2.897(15) . ?
O1 N4 1.234(7) . ?
O2 N3 1.254(10) . ?
O3 N6 1.459(13) . ?
O4 N6 0.962(12) . ?
O6 N4 1.232(10) . ?
O7 N3 1.254(10) . ?
O8 N4 1.224(8) . ?
O9 N5 1.13(2) . ?
O9 O15 1.805(19) . ?
O10 N6 1.200(7) . ?
O12 N1 1.281(8) . ?
O13 N5 1.17(2) . ?
O14 N1 1.018(13) . ?
O15 N5 0.98(2) . ?
O16 N1 1.272(10) . ?
O16 O16 1.786(16) 2_665 ?
O17 N3 1.242(9) . ?
O18 N6 1.332(11) . ?
O20 N6 1.312(9) . ?
O22 N1 1.272(11) . ?
O23 N1 1.453(13) . ?
O5 C5 1.406(10) . ?
O19 C11 1.408(10) . ?
N2 C7 1.502(8) . ?
N2 C13 1.503(9) . ?
N2 C9 1.505(9) . ?
N2 C11 1.514(8) . ?
C2 C16 1.497(9) . ?
C2 C11 1.502(9) . ?
C3 C13 1.497(11) . ?
C3 C16 1.499(9) . ?
C5 C16 1.491(8) . ?
C5 C9 1.505(9) . ?
C7 C15 1.496(9) . ?
C15 C16 1.497(8) . ?
O11 C6 1.409(10) . ?
O21 C1 1.408(10) . ?
N7 C4 1.496(8) . ?
N7 C12 1.497(9) . ?
N7 C6 1.498(9) . ?
C1 C10 1.488(9) . ?
C1 C4 1.497(9) . ?
C6 C8 1.504(9) . ?
C8 C10 1.500(9) . ?
C10 C14 1.498(10) . ?
C12 C14 1.505(10) . ?
 
loop_
 _geom_angle_atom_site_label_1
 _geom_angle_atom_site_label_2
 _geom_angle_atom_site_label_3
 _geom_angle
 _geom_angle_site_symmetry_1
 _geom_angle_site_symmetry_3
 _geom_angle_publ_flag
O3 Pr1 O3 98.6(5) . 2_665 ?
O3 Pr1 O22 144.1(3) . 2_665 ?
O3 Pr1 O22 68.9(3) 2_665 2_665 ?
O3 Pr1 O22 68.9(3) . . ?
O3 Pr1 O22 144.1(3) 2_665 . ?
O22 Pr1 O22 139.6(4) 2_665 . ?
O3 Pr1 O16 114.7(3) . . ?
O3 Pr1 O16 143.6(3) 2_665 . ?
O22 Pr1 O16 89.9(3) 2_665 . ?
O22 Pr1 O16 49.8(3) . . ?
O3 Pr1 O16 143.6(3) . 2_665 ?
O3 Pr1 O16 114.7(3) 2_665 2_665 ?
O22 Pr1 O16 49.8(3) 2_665 2_665 ?
O22 Pr1 O16 89.9(3) . 2_665 ?
O16 Pr1 O16 40.5(4) . 2_665 ?
O3 Pr1 O8 68.8(3) . . ?
O3 Pr1 O8 89.7(3) 2_665 . ?
O22 Pr1 O8 77.4(3) 2_665 . ?
O22 Pr1 O8 114.4(3) . . ?
O16 Pr1 O8 115.0(3) . . ?
O16 Pr1 O8 96.1(3) 2_665 . ?
O3 Pr1 O8 89.7(3) . 2_665 ?
O3 Pr1 O8 68.8(3) 2_665 2_665 ?
O22 Pr1 O8 114.4(3) 2_665 2_665 ?
O22 Pr1 O8 77.4(3) . 2_665 ?
O16 Pr1 O8 96.1(3) . 2_665 ?
O16 Pr1 O8 115.0(3) 2_665 2_665 ?
O8 Pr1 O8 147.3(3) . 2_665 ?
O3 Pr1 O23 99.0(3) . . ?
O3 Pr1 O23 129.8(4) 2_665 . ?
O22 Pr1 O23 114.9(3) 2_665 . ?
O22 Pr1 O23 32.5(3) . . ?
O16 Pr1 O23 34.5(3) . . ?
O16 Pr1 O23 71.2(3) 2_665 . ?
O8 Pr1 O23 140.5(3) . . ?
O8 Pr1 O23 64.7(3) 2_665 . ?
O3 Pr1 O23 129.8(4) . 2_665 ?
O3 Pr1 O23 99.0(3) 2_665 2_665 ?
O22 Pr1 O23 32.5(3) 2_665 2_665 ?
O22 Pr1 O23 114.9(3) . 2_665 ?
O16 Pr1 O23 71.2(3) . 2_665 ?
O16 Pr1 O23 34.5(3) 2_665 2_665 ?
O8 Pr1 O23 64.7(3) . 2_665 ?
O8 Pr1 O23 140.5(3) 2_665 2_665 ?
O23 Pr1 O23 104.6(5) . 2_665 ?
O3 Pr1 O1 68.4(3) . . ?
O3 Pr1 O1 137.6(3) 2_665 . ?
O22 Pr1 O1 97.6(3) 2_665 . ?
O22 Pr1 O1 70.8(3) . . ?
O16 Pr1 O1 72.2(3) . . ?
O16 Pr1 O1 76.9(3) 2_665 . ?
O8 Pr1 O1 47.94(18) . . ?
O8 Pr1 O1 146.09(16) 2_665 . ?
O23 Pr1 O1 92.6(3) . . ?
O23 Pr1 O1 66.9(3) 2_665 . ?
O3 Pr1 O1 137.6(3) . 2_665 ?
O3 Pr1 O1 68.4(3) 2_665 2_665 ?
O22 Pr1 O1 70.8(3) 2_665 2_665 ?
O22 Pr1 O1 97.6(3) . 2_665 ?
O16 Pr1 O1 76.9(3) . 2_665 ?
O16 Pr1 O1 72.2(3) 2_665 2_665 ?
O8 Pr1 O1 146.09(16) . 2_665 ?
O8 Pr1 O1 47.94(18) 2_665 2_665 ?
O23 Pr1 O1 66.9(3) . 2_665 ?
O23 Pr1 O1 92.6(3) 2_665 2_665 ?
O1 Pr1 O1 147.0(2) . 2_665 ?
O3 Pr1 O18 31.5(3) . . ?
O3 Pr1 O18 113.1(3) 2_665 . ?
O22 Pr1 O18 174.4(4) 2_665 . ?
O22 Pr1 O18 41.3(3) . . ?
O16 Pr1 O18 91.0(3) . . ?
O16 Pr1 O18 130.2(3) 2_665 . ?
O8 Pr1 O18 97.3(3) . . ?
O8 Pr1 O18 71.0(3) 2_665 . ?
O23 Pr1 O18 68.3(3) . . ?
O23 Pr1 O18 143.4(3) 2_665 . ?
O1 Pr1 O18 77.4(3) . . ?
O1 Pr1 O18 114.8(3) 2_665 . ?
O3 Pr1 O18 113.1(3) . 2_665 ?
O3 Pr1 O18 31.5(3) 2_665 2_665 ?
O22 Pr1 O18 41.3(3) 2_665 2_665 ?
O22 Pr1 O18 174.4(4) . 2_665 ?
O16 Pr1 O18 130.2(3) . 2_665 ?
O16 Pr1 O18 91.0(3) 2_665 2_665 ?
O8 Pr1 O18 71.0(3) . 2_665 ?
O8 Pr1 O18 97.3(3) 2_665 2_665 ?
O23 Pr1 O18 143.4(3) . 2_665 ?
O23 Pr1 O18 68.3(3) 2_665 2_665 ?
O1 Pr1 O18 114.8(3) . 2_665 ?
O1 Pr1 O18 77.4(3) 2_665 2_665 ?
O18 Pr1 O18 138.6(4) . 2_665 ?
O3 Pr1 O20 69.6(3) . 2_665 ?
O3 Pr1 O20 30.3(3) 2_665 2_665 ?
O22 Pr1 O20 88.9(3) 2_665 2_665 ?
O22 Pr1 O20 131.4(3) . 2_665 ?
O16 Pr1 O20 172.9(4) . 2_665 ?
O16 Pr1 O20 138.7(3) 2_665 2_665 ?
O8 Pr1 O20 71.5(3) . 2_665 ?
O8 Pr1 O20 78.1(3) 2_665 2_665 ?
O23 Pr1 O20 141.4(3) . 2_665 ?
O23 Pr1 O20 110.7(3) 2_665 2_665 ?
O1 Pr1 O20 114.9(3) . 2_665 ?
O1 Pr1 O20 96.1(3) 2_665 2_665 ?
O18 Pr1 O20 90.9(3) . 2_665 ?
O18 Pr1 O20 47.7(3) 2_665 2_665 ?
O3 Pr1 O20 30.3(3) . . ?
O3 Pr1 O20 69.6(3) 2_665 . ?
O22 Pr1 O20 131.4(3) 2_665 . ?
O22 Pr1 O20 88.9(3) . . ?
O16 Pr1 O20 138.7(3) . . ?
O16 Pr1 O20 172.9(4) 2_665 . ?
O8 Pr1 O20 78.1(3) . . ?
O8 Pr1 O20 71.5(3) 2_665 . ?
O23 Pr1 O20 110.7(3) . . ?
O23 Pr1 O20 141.4(3) 2_665 . ?
O1 Pr1 O20 96.1(3) . . ?
O1 Pr1 O20 114.9(3) 2_665 . ?
O18 Pr1 O20 47.7(3) . . ?
O18 Pr1 O20 90.9(3) 2_665 . ?
O20 Pr1 O20 43.4(3) 2_665 . ?
O3 Pr1 O4 79.7(3) . 2_665 ?
O3 Pr1 O4 43.9(3) 2_665 2_665 ?
O22 Pr1 O4 68.0(3) 2_665 2_665 ?
O22 Pr1 O4 148.3(3) . 2_665 ?
O16 Pr1 O4 152.3(3) . 2_665 ?
O16 Pr1 O4 114.1(3) 2_665 2_665 ?
O8 Pr1 O4 45.8(3) . 2_665 ?
O8 Pr1 O4 108.0(3) 2_665 2_665 ?
O23 Pr1 O4 172.6(4) . 2_665 ?
O23 Pr1 O4 81.4(3) 2_665 2_665 ?
O1 Pr1 O4 93.7(3) . 2_665 ?
O1 Pr1 O4 109.1(3) 2_665 2_665 ?
O18 Pr1 O4 109.4(3) . 2_665 ?
O18 Pr1 O4 34.9(3) 2_665 2_665 ?
O20 Pr1 O4 31.4(3) 2_665 2_665 ?
O20 Pr1 O4 64.7(3) . 2_665 ?
O3 Pr1 O4 43.9(3) . . ?
O3 Pr1 O4 79.7(3) 2_665 . ?
O22 Pr1 O4 148.3(3) 2_665 . ?
O22 Pr1 O4 68.0(3) . . ?
O16 Pr1 O4 114.1(3) . . ?
O16 Pr1 O4 152.3(3) 2_665 . ?
O8 Pr1 O4 108.0(3) . . ?
O8 Pr1 O4 45.8(3) 2_665 . ?
O23 Pr1 O4 81.4(3) . . ?
O23 Pr1 O4 172.6(4) 2_665 . ?
O1 Pr1 O4 109.1(3) . . ?
O1 Pr1 O4 93.7(3) 2_665 . ?
O18 Pr1 O4 34.9(3) . . ?
O18 Pr1 O4 109.4(3) 2_665 . ?
O20 Pr1 O4 64.7(3) 2_665 . ?
O20 Pr1 O4 31.4(3) . . ?
O4 Pr1 O4 92.9(5) 2_665 . ?
O3 Pr1 O14 81.2(3) . . ?
O3 Pr1 O14 179.6(4) 2_665 . ?
O22 Pr1 O14 111.5(3) 2_665 . ?
O22 Pr1 O14 35.5(3) . . ?
O16 Pr1 O14 36.5(3) . . ?
O16 Pr1 O14 65.5(3) 2_665 . ?
O8 Pr1 O14 90.6(3) . . ?
O8 Pr1 O14 110.8(3) 2_665 . ?
O23 Pr1 O14 50.0(3) . . ?
O23 Pr1 O14 81.3(3) 2_665 . ?
O1 Pr1 O14 42.7(3) . . ?
O1 Pr1 O14 111.5(3) 2_665 . ?
O18 Pr1 O14 66.6(3) . . ?
O18 Pr1 O14 148.9(3) 2_665 . ?
O20 Pr1 O14 149.6(3) 2_665 . ?
O20 Pr1 O14 110.1(3) . . ?
O4 Pr1 O14 136.3(4) 2_665 . ?
O4 Pr1 O14 99.9(3) . . ?
O3 Pr1 O14 179.6(3) . 2_665 ?
O3 Pr1 O14 81.2(3) 2_665 2_665 ?
O22 Pr1 O14 35.5(3) 2_665 2_665 ?
O22 Pr1 O14 111.5(3) . 2_665 ?
O16 Pr1 O14 65.5(3) . 2_665 ?
O16 Pr1 O14 36.5(3) 2_665 2_665 ?
O8 Pr1 O14 110.8(3) . 2_665 ?
O8 Pr1 O14 90.6(3) 2_665 2_665 ?
O23 Pr1 O14 81.3(3) . 2_665 ?
O23 Pr1 O14 50.0(3) 2_665 2_665 ?
O1 Pr1 O14 111.5(3) . 2_665 ?
O1 Pr1 O14 42.7(3) 2_665 2_665 ?
O18 Pr1 O14 148.9(3) . 2_665 ?
O18 Pr1 O14 66.6(3) 2_665 2_665 ?
O20 Pr1 O14 110.1(3) 2_665 2_665 ?
O20 Pr1 O14 149.6(3) . 2_665 ?
O4 Pr1 O14 99.9(3) 2_665 2_665 ?
O4 Pr1 O14 136.3(4) . 2_665 ?
O14 Pr1 O14 99.0(5) . 2_665 ?
O3 Pr1 N1 159.4(3) . 2_665 ?
O3 Pr1 N1 89.4(2) 2_665 2_665 ?
O22 Pr1 N1 25.7(2) 2_665 2_665 ?
O22 Pr1 N1 114.3(3) . 2_665 ?
O16 Pr1 N1 64.5(2) . 2_665 ?
O16 Pr1 N1 25.7(2) 2_665 2_665 ?
O8 Pr1 N1 92.46(18) . 2_665 ?
O8 Pr1 N1 110.90(19) 2_665 2_665 ?
O23 Pr1 N1 90.1(2) . 2_665 ?
O23 Pr1 N1 29.7(3) 2_665 2_665 ?
O1 Pr1 N1 92.94(18) . 2_665 ?
O1 Pr1 N1 62.97(18) 2_665 2_665 ?
O18 Pr1 N1 155.5(2) . 2_665 ?
O18 Pr1 N1 65.9(2) 2_665 2_665 ?
O20 Pr1 N1 113.5(2) 2_665 2_665 ?
O20 Pr1 N1 156.8(2) . 2_665 ?
O4 Pr1 N1 93.5(2) 2_665 2_665 ?
O4 Pr1 N1 156.6(3) . 2_665 ?
O14 Pr1 N1 90.9(2) . 2_665 ?
O14 Pr1 N1 20.3(3) 2_665 2_665 ?
O3 Pr1 N1 89.4(2) . . ?
O3 Pr1 N1 159.4(3) 2_665 . ?
O22 Pr1 N1 114.3(3) 2_665 . ?
O22 Pr1 N1 25.7(2) . . ?
O16 Pr1 N1 25.7(2) . . ?
O16 Pr1 N1 64.5(2) 2_665 . ?
O8 Pr1 N1 110.90(19) . . ?
O8 Pr1 N1 92.46(18) 2_665 . ?
O23 Pr1 N1 29.7(3) . . ?
O23 Pr1 N1 90.1(2) 2_665 . ?
O1 Pr1 N1 62.97(18) . . ?
O1 Pr1 N1 92.94(18) 2_665 . ?
O18 Pr1 N1 65.9(2) . . ?
O18 Pr1 N1 155.5(2) 2_665 . ?
O20 Pr1 N1 156.8(2) 2_665 . ?
O20 Pr1 N1 113.5(2) . . ?
O4 Pr1 N1 156.6(3) 2_665 . ?
O4 Pr1 N1 93.5(2) . . ?
O14 Pr1 N1 20.3(3) . . ?
O14 Pr1 N1 90.9(2) 2_665 . ?
N1 Pr1 N1 89.6(2) 2_665 . ?
O10 K1 O10 92.0(2) 2_766 1_556 ?
O10 K1 O12 89.94(17) 2_766 2_765 ?
O10 K1 O12 166.58(19) 1_556 2_765 ?
O10 K1 O12 166.58(19) 2_766 . ?
O10 K1 O12 89.94(17) 1_556 . ?
O12 K1 O12 91.3(2) 2_765 . ?
O10 K1 O2 65.4(2) 2_766 . ?
O10 K1 O2 88.2(2) 1_556 . ?
O12 K1 O2 104.7(2) 2_765 . ?
O12 K1 O2 101.4(2) . . ?
O10 K1 O2 88.2(2) 2_766 2_765 ?
O10 K1 O2 65.4(2) 1_556 2_765 ?
O12 K1 O2 101.4(2) 2_765 2_765 ?
O12 K1 O2 104.7(2) . 2_765 ?
O2 K1 O2 142.3(4) . 2_765 ?
O10 K1 O7 86.3(2) 2_766 2_765 ?
O10 K1 O7 108.1(2) 1_556 2_765 ?
O12 K1 O7 58.7(2) 2_765 2_765 ?
O12 K1 O7 105.7(2) . 2_765 ?
O2 K1 O7 148.1(3) . 2_765 ?
O2 K1 O7 42.8(2) 2_765 2_765 ?
O10 K1 O7 108.1(2) 2_766 . ?
O10 K1 O7 86.3(2) 1_556 . ?
O12 K1 O7 105.7(2) 2_765 . ?
O12 K1 O7 58.7(2) . . ?
O2 K1 O7 42.8(2) . . ?
O2 K1 O7 148.1(3) 2_765 . ?
O7 K1 O7 159.5(4) 2_765 . ?
O10 K1 O15 98.3(3) 2_766 . ?
O10 K1 O15 102.6(3) 1_556 . ?
O12 K1 O15 90.3(3) 2_765 . ?
O12 K1 O15 68.3(3) . . ?
O10 K1 O15 102.6(3) 2_766 2_765 ?
O10 K1 O15 98.3(3) 1_556 2_765 ?
O12 K1 O15 68.3(3) 2_765 2_765 ?
O12 K1 O15 90.3(3) . 2_765 ?
O2 K1 O15 166.7(3) . 2_765 ?
O2 K1 O15 36.4(4) 2_765 2_765 ?
O7 K1 O15 18.6(3) 2_765 2_765 ?
O7 K1 O15 148.8(3) . 2_765 ?
O10 K1 O13 109.3(3) 2_766 2_765 ?
O10 K1 O13 60.7(3) 1_556 2_765 ?
O12 K1 O13 106.2(3) 2_765 2_765 ?
O12 K1 O13 83.1(3) . 2_765 ?
O2 K1 O13 148.7(3) . 2_765 ?
O2 K1 O13 21.9(3) 2_765 2_765 ?
O7 K1 O13 53.0(3) 2_765 2_765 ?
O7 K1 O13 130.0(3) . 2_765 ?
O10 K1 O13 60.7(3) 2_766 . ?
O10 K1 O13 109.3(3) 1_556 . ?
O12 K1 O13 83.1(3) 2_765 . ?
O12 K1 O13 106.2(3) . . ?
O15 K1 O13 38.4(4) . . ?
O15 K1 O13 147.4(4) 2_765 . ?
O13 K1 O13 167.0(5) 2_765 . ?
N4 O1 Pr1 96.3(4) . . ?
N3 O2 K1 103.0(7) . . ?
N6 O3 Pr1 102.3(6) . . ?
N6 O4 Pr1 110.4(9) . . ?
N3 O7 K1 101.8(6) . . ?
N4 O8 Pr1 97.6(4) . . ?
N5 O9 O15 29.1(11) . . ?
N6 O10 K1 166.8(5) . 1_554 ?
N1 O12 K1 166.1(5) . . ?
N5 O13 K1 95.5(13) . . ?
N1 O14 Pr1 90.7(7) . . ?
N5 O15 O9 34.1(14) . . ?
N5 O15 K1 101.9(16) . . ?
O9 O15 K1 135.0(8) . . ?
N1 O16 O16 149.9(11) . 2_665 ?
N1 O16 Pr1 92.7(5) . . ?
O16 O16 Pr1 69.75(18) 2_665 . ?
N6 O18 Pr1 98.7(5) . . ?
N6 O20 Pr1 98.6(5) . . ?
N1 O22 Pr1 92.9(5) . . ?
N1 O23 Pr1 88.3(5) . . ?
O14 N1 O22 89.8(9) . . ?
O14 N1 O16 93.1(9) . . ?
O22 N1 O16 117.2(7) . . ?
O14 N1 O12 106.9(9) . . ?
O22 N1 O12 118.5(6) . . ?
O16 N1 O12 120.3(7) . . ?
O14 N1 O23 130.8(8) . . ?
O22 N1 O23 63.6(7) . . ?
O16 N1 O23 68.0(7) . . ?
O12 N1 O23 122.0(7) . . ?
O14 N1 Pr1 69.0(7) . . ?
O22 N1 Pr1 61.4(4) . . ?
O16 N1 Pr1 61.6(5) . . ?
O12 N1 Pr1 175.8(5) . . ?
O23 N1 Pr1 62.0(4) . . ?
O17 N3 O2 113.8(10) . . ?
O17 N3 O7 133.6(11) . . ?
O2 N3 O7 112.5(9) . . ?
O17 N3 K1 168.6(8) . . ?
O2 N3 K1 55.7(6) . . ?
O7 N3 K1 56.8(6) . . ?
O8 N4 O6 120.7(6) . . ?
O8 N4 O1 118.2(7) . . ?
O6 N4 O1 121.0(6) . . ?
O15 N5 O9 117(2) . . ?
O15 N5 O13 124(2) . . ?
O9 N5 O13 116.9(19) . . ?
O15 N5 K1 60.7(14) . . ?
O9 N5 K1 168.7(13) . . ?
O13 N5 K1 63.4(12) . . ?
O4 N6 O10 124.4(10) . . ?
O4 N6 O20 76.1(8) . . ?
O10 N6 O20 123.5(6) . . ?
O4 N6 O18 85.4(9) . . ?
O10 N6 O18 124.8(6) . . ?
O20 N6 O18 107.1(7) . . ?
O4 N6 O3 102.8(8) . . ?
O10 N6 O3 132.3(7) . . ?
O20 N6 O3 57.7(6) . . ?
O18 N6 O3 59.4(7) . . ?
C7 N2 C9 111.2(9) . . ?
C13 N2 C9 87.6(7) . . ?
C7 N2 C11 94.3(10) . . ?
C13 N2 C11 111.8(6) . . ?
C9 N2 C11 125.1(6) . . ?
C16 C2 C11 115.9(7) . . ?
C13 C3 C16 103.5(8) . . ?
O5 C5 C16 82.8(8) . . ?
O5 C5 C9 76.1(10) . . ?
C16 C5 C9 102.2(6) . . ?
C15 C7 N2 100.3(6) . . ?
C5 C9 N2 106.7(7) . . ?
O19 C11 C2 76.8(10) . . ?
O19 C11 N2 79.8(7) . . ?
C2 C11 N2 94.4(6) . . ?
C3 C13 N2 92.2(7) . . ?
C7 C15 C16 118.1(6) . . ?
C5 C16 C15 88.8(9) . . ?
C5 C16 C2 119.5(7) . . ?
C15 C16 C2 101.6(8) . . ?
C5 C16 C3 98.4(6) . . ?
C2 C16 C3 87.7(7) . . ?
C4 N7 C12 104.8(7) . . ?
C4 N7 C6 113.6(7) . . ?
C12 N7 C6 100.3(6) . . ?
O21 C1 C10 112.6(11) . . ?
O21 C1 C4 121.2(10) . . ?
C10 C1 C4 107.2(7) . . ?
N7 C4 C1 108.7(7) . . ?
O11 C6 N7 102.3(9) . . ?
O11 C6 C8 128.5(10) . . ?
N7 C6 C8 106.7(7) . . ?
C10 C8 C6 108.4(7) . . ?
C1 C10 C14 95.4(6) . . ?
C1 C10 C8 114.2(8) . . ?
C14 C10 C8 101.8(7) . . ?
N7 C12 C14 99.4(7) . . ?
C10 C14 C12 110.5(7) . . ?
 
loop_
 _geom_torsion_atom_site_label_1
 _geom_torsion_atom_site_label_2
 _geom_torsion_atom_site_label_3
 _geom_torsion_atom_site_label_4
 _geom_torsion
 _geom_torsion_site_symmetry_1
 _geom_torsion_site_symmetry_2
 _geom_torsion_site_symmetry_3
 _geom_torsion_site_symmetry_4
 _geom_torsion_publ_flag
N5 O9 O15 K1 -17(2) . . . . ?
Pr1 O14 N1 O22 59.3(5) . . . . ?
Pr1 O14 N1 O16 -57.9(6) . . . . ?
Pr1 O14 N1 O12 179.1(5) . . . . ?
Pr1 O14 N1 O23 5.4(11) . . . . ?
Pr1 O22 N1 O14 -66.0(7) . . . . ?
Pr1 O22 N1 O16 27.3(10) . . . . ?
Pr1 O22 N1 O12 -175.2(6) . . . . ?
Pr1 O22 N1 O23 71.0(5) . . . . ?
O16 O16 N1 O14 11.5(18) 2_665 . . . ?
Pr1 O16 N1 O14 64.0(8) . . . . ?
O16 O16 N1 O22 -79.8(19) 2_665 . . . ?
Pr1 O16 N1 O22 -27.3(10) . . . . ?
O16 O16 N1 O12 123.1(13) 2_665 . . . ?
Pr1 O16 N1 O12 175.6(6) . . . . ?
O16 O16 N1 O23 -121.6(15) 2_665 . . . ?
Pr1 O16 N1 O23 -69.1(5) . . . . ?
O16 O16 N1 Pr1 -52.5(12) 2_665 . . . ?
K1 O12 N1 O14 179.6(17) . . . . ?
K1 O12 N1 O22 -81(2) . . . . ?
K1 O12 N1 O16 76(2) . . . . ?
K1 O12 N1 O23 -6(2) . . . . ?
Pr1 O23 N1 O14 -5.7(11) . . . . ?
Pr1 O23 N1 O22 -70.0(6) . . . . ?
Pr1 O23 N1 O16 68.5(5) . . . . ?
Pr1 O23 N1 O12 -178.6(5) . . . . ?
K1 O2 N3 O17 174.9(9) . . . . ?
K1 O2 N3 O7 -1.3(10) . . . . ?
K1 O7 N3 O17 -174.0(12) . . . . ?
K1 O7 N3 O2 1.3(10) . . . . ?
Pr1 O8 N4 O6 -179.1(5) . . . . ?
Pr1 O8 N4 O1 -2.1(6) . . . . ?
Pr1 O1 N4 O8 2.1(6) . . . . ?
Pr1 O1 N4 O6 179.0(5) . . . . ?
K1 O15 N5 O9 167.5(15) . . . . ?
O9 O15 N5 O13 -162(3) . . . . ?
K1 O15 N5 O13 6(2) . . . . ?
O9 O15 N5 K1 -167.5(15) . . . . ?
O15 O9 N5 O13 163(3) . . . . ?
O15 O9 N5 K1 74(7) . . . . ?
K1 O13 N5 O15 -6(2) . . . . ?
K1 O13 N5 O9 -167.3(15) . . . . ?
Pr1 O4 N6 O10 -180.0(5) . . . . ?
Pr1 O4 N6 O20 -58.6(6) . . . . ?
Pr1 O4 N6 O18 50.3(7) . . . . ?
Pr1 O4 N6 O3 -7.0(8) . . . . ?
K1 O10 N6 O4 175.9(17) 1_554 . . . ?
K1 O10 N6 O20 80(2) 1_554 . . . ?
K1 O10 N6 O18 -73(2) 1_554 . . . ?
K1 O10 N6 O3 5(2) 1_554 . . . ?
Pr1 O20 N6 O4 54.3(8) . . . . ?
Pr1 O20 N6 O10 176.6(7) . . . . ?
Pr1 O20 N6 O18 -26.4(8) . . . . ?
Pr1 O20 N6 O3 -60.9(6) . . . . ?
Pr1 O18 N6 O4 -47.4(8) . . . . ?
Pr1 O18 N6 O10 -176.8(7) . . . . ?
Pr1 O18 N6 O20 26.6(9) . . . . ?
Pr1 O18 N6 O3 60.3(5) . . . . ?
Pr1 O3 N6 O4 7.2(8) . . . . ?
Pr1 O3 N6 O10 179.4(6) . . . . ?
Pr1 O3 N6 O20 71.5(6) . . . . ?
Pr1 O3 N6 O18 -69.6(6) . . . . ?
C9 N2 C7 C15 -60.5(17) . . . . ?
C11 N2 C7 C15 70.0(15) . . . . ?
O5 C5 C9 N2 121.3(9) . . . . ?
C16 C5 C9 N2 42.0(8) . . . . ?
C7 N2 C9 C5 37.6(10) . . . . ?
C13 N2 C9 C5 40.9(7) . . . . ?
C11 N2 C9 C5 -74.3(9) . . . . ?
C16 C2 C11 O19 118.6(10) . . . . ?
C16 C2 C11 N2 40.2(8) . . . . ?
C7 N2 C11 O19 -171.1(10) . . . . ?
C13 N2 C11 O19 -154.4(10) . . . . ?
C9 N2 C11 O19 -51.3(11) . . . . ?
C7 N2 C11 C2 -95.4(7) . . . . ?
C13 N2 C11 C2 -78.7(8) . . . . ?
C9 N2 C11 C2 24.5(9) . . . . ?
C16 C3 C13 N2 64.8(8) . . . . ?
C9 N2 C13 C3 -100.7(7) . . . . ?
C11 N2 C13 C3 26.5(8) . . . . ?
N2 C7 C15 C16 6(2) . . . . ?
O5 C5 C16 C15 -162.7(10) . . . . ?
C9 C5 C16 C15 -88.7(7) . . . . ?
O5 C5 C16 C2 -60.0(11) . . . . ?
C9 C5 C16 C2 14.0(9) . . . . ?
O5 C5 C16 C3 -152.1(10) . . . . ?
C9 C5 C16 C3 -78.1(8) . . . . ?
C7 C15 C16 C5 64.7(19) . . . . ?
C7 C15 C16 C2 -55(2) . . . . ?
C11 C2 C16 C5 -67.9(10) . . . . ?
C11 C2 C16 C15 27.4(10) . . . . ?
C11 C2 C16 C3 30.5(9) . . . . ?
C13 C3 C16 C5 21.6(9) . . . . ?
C13 C3 C16 C2 -97.9(8) . . . . ?
C12 N7 C4 C1 79.3(10) . . . . ?
C6 N7 C4 C1 -29.1(11) . . . . ?
O21 C1 C4 N7 95.1(15) . . . . ?
C10 C1 C4 N7 -36.1(11) . . . . ?
C4 N7 C6 O11 -66.5(11) . . . . ?
C12 N7 C6 O11 -177.7(10) . . . . ?
C4 N7 C6 C8 70.5(9) . . . . ?
C12 N7 C6 C8 -40.8(9) . . . . ?
O11 C6 C8 C10 84.4(16) . . . . ?
N7 C6 C8 C10 -37.2(11) . . . . ?
O21 C1 C10 C14 -171.9(11) . . . . ?
C4 C1 C10 C14 -36.2(8) . . . . ?
O21 C1 C10 C8 -66.4(13) . . . . ?
C4 C1 C10 C8 69.4(9) . . . . ?
C6 C8 C10 C1 -27.8(12) . . . . ?
C6 C8 C10 C14 73.6(10) . . . . ?
C4 N7 C12 C14 -30.6(8) . . . . ?
C6 N7 C12 C14 87.4(7) . . . . ?
C1 C10 C14 C12 90.6(8) . . . . ?
C8 C10 C14 C12 -25.5(9) . . . . ?
N7 C12 C14 C10 -49.3(9) . . . . ?
 
_refine_diff_density_max    1.156
_refine_diff_density_min   -0.727
_refine_diff_density_rms    0.140

_shelx_res_file
;
TITL mo_R3HQ_PrK_353K_0m_a.res in P2(1)2(1)2
    mo_r3hq_prk_353k_0m_a.res
    created by SHELXL-2019/3 at 19:32:52 on 18-Nov-2024
REM Old TITL Integration of R3HQ_PrK_353K
REM SHELXT solution in P2(1)2(1)2: R1 0.174, Rweak 0.008, Alpha 0.024
REM <I/s> 1.582 for 20 systematic absences, Orientation a'=b, b'=c, c'=a
REM Flack x = 0.479 ( 0.025 ) from 878 Parsons' quotients
REM Formula found by SHELXT: C36 K N10 N3 Pr
CELL 0.71073 9.9188 24.4257 9.8593 90 90 90
ZERR 2 0.0006 0.0021 0.0008 0 0 0
LATT -1
SYMM -X,-Y,+Z
SYMM 0.5-X,0.5+Y,-Z
SYMM 0.5+X,0.5-Y,-Z
SFAC C K N O Pr
UNIT 56 2 24 56 2
EQIV $1 1-X,1-Y,+Z
DFIX 1.5 0.01 C16 C2 C16 C5 C9 C5 N2 C9 N2 C11 C11 C2
DFIX 1.5 0.01 C12 C14 C12 N7 C10 C14 C8 C10 C8 C6 C6 N7 C4 N7 C4 C1 C1 C10
SIMU 0.01 0.02 2 N7 > C14
DANG 2.3 C14 C1
SIMU 0.01 0.02 2 N2 C2 C5 C9 C11 C16
DANG 2.3 C14 C8
DANG 2.3 C4 C12
DANG 2.3 C4 C10
DANG 2.1 C15 C5
DELU 0.01 0.02
ISOR 0.01 0.02 N6
DFIX 1.41 0.01 O19 C11 O5 C5
DFIX 1.41 0.01 O11 C6 O21 C1
DANG 2.3 C12 C6
DANG 2.3 C6 C10
SIMU 0.01 0.02 2 Pr1 K1 O1 O3 O4 O6 O8 O10 O12 O14 O16 O18 > N1 N4 N6
SADI C16 C15 C16 C3
DFIX 1.5 0.01 C15 C7 C3 C13
DFIX 1.5 0.01 N2 C13 N2 C7 C16 C3 C16 C15
DANG 2.3 C8 N7
DFIX 1.3 0.01 O17 N3 O7 N3 O2 N3
DANG 1.85 O2 O7
DANG 1.85 O17 O7
DANG 1.85 O17 O2
DANG 1.85 O15 O9
DANG 1.85 O15 O13
DANG 1.85 O9 O13
FLAT O2 O7 O17 N3
FLAT O9 O13 O15 N5
SIMU 0.01 0.02 2 O2 O7 O9 O13 O15 O17 N3 N5
ISOR 0.01 0.02 O13 N3 O7 O17 O9 N5 O2 O15
SADI N2 C13 N2 C7
DANG 2.3 0.01 N2 C15
SIMU 0.01 0.02 2 C3 C7 C13 C15
ISOR 0.01 0.02 C13 C3 C7 C15
ISOR 0.01 0.02 O5 O19
ISOR 0.005 0.01 O11 O21

L.S. 5
PLAN  20
SIZE 0.1 0.1 0.11
TEMP 79.85
CONF
FREE O3 O18
FREE O3 O20
FREE O22 O14
FREE N2 C15
BIND C3 C13
FREE C3 C2
BIND C5 O5
FREE C9 C13
FREE O5 C16
FREE O5 C9
BIND C11 O19
FREE C15 C5
FREE C15 C9
BIND C16 C3
FREE O7 O15
FREE O7 O2
FREE O16 O14
FREE O17 O15
FREE O13 O2
FREE O13 O15
FREE O4 O18
FREE O4 O20
FREE O19 C2
FREE O19 N2
CONN 24 Pr1
FREE Pr1 N4_$1
FREE Pr1 N4
FREE O9 O2
FREE O23 O16
FREE O23 O22
CONN 5 C6
BIND C6 O11
FREE C12 C10
BIND C1 O21
DAMP 2000
LIST 4
MORE -1
HTAB
fmap 2
acta
TWIN -1 0 0 0 -1 0 0 0 -1 2
OMIT -5 2 10
OMIT -3 4 11
OMIT 0 7 10
OMIT 0 25 3
OMIT 5 2 10
OMIT 6 2 10
REM <olex2.extras>
REM <HklSrc "%.\\mo_R3HQ_PrK_353K_0m_a.hkl">
REM </olex2.extras>

WGHT    0.118900
BASF   0.48815
FVAR       0.31356   0.51882
PR1   5    0.500000    0.500000   -0.001268    10.50000    0.03436    0.05762 =
         0.03451    0.00000    0.00000    0.00991
K1    2    1.000000    0.500000    0.500088    10.50000    0.04696    0.09505 =
         0.04741    0.00000    0.00000    0.00323
O1    4    0.575810    0.597582    0.073833    11.00000    0.07715    0.06325 =
         0.06431    0.00366   -0.01169   -0.00012
PART 1
O2    4    1.032482    0.609597    0.593350    21.00000    0.13209    0.12288 =
         0.14162   -0.01199   -0.00034   -0.00797
PART 0
O3    4    0.659417    0.540490   -0.163835    10.50000    0.05323    0.08911 =
         0.05544   -0.00506    0.02431    0.00262
O4    4    0.670059    0.462663   -0.186302    10.50000    0.05706    0.08951 =
         0.06381   -0.00493    0.02726    0.00532
O6    4    0.498053    0.673387   -0.003728    11.00000    0.16875    0.06617 =
         0.13842   -0.00222   -0.02196    0.02273
PART 1
O7    4    0.879862    0.604922    0.448313    21.00000    0.12993    0.11804 =
         0.14140   -0.00361   -0.00244    0.00348
PART 0
O8    4    0.423167    0.596672   -0.075124    11.00000    0.06847    0.07158 =
         0.08607    0.02368   -0.01375    0.02147
PART 2
O9    4    1.068180    0.674181    0.443450   -21.00000    0.13783    0.12605 =
         0.14510   -0.00414    0.00442   -0.00636
PART 0
O10   4    0.806889    0.486830   -0.309618    11.00000    0.07656    0.09886 =
         0.08886   -0.01008    0.05656    0.01568
O12   4    0.799124    0.513243    0.299842    11.00000    0.09843    0.08530 =
         0.08502    0.00971   -0.03340    0.00594
PART 2
O13   4    1.124970    0.606371    0.533482   -21.00000    0.13492    0.12162 =
         0.14034   -0.00465    0.00184   -0.01247
PART 0
O14   4    0.678749    0.544602    0.178859    10.50000    0.07120    0.07275 =
         0.06576    0.00214   -0.01945   -0.00138
PART 2
O15   4    0.968187    0.612951    0.424148   -21.00000    0.13101    0.12161 =
         0.14458   -0.00219    0.00229   -0.00629
PART 0
O16   4    0.588493    0.493232    0.244329    10.50000    0.06916    0.07732 =
         0.05833    0.00787   -0.00688    0.00514
PART 1
O17   4    0.933838    0.684098    0.561048    21.00000    0.16647    0.13829 =
         0.15892   -0.01727    0.00097    0.00244
PART 0
O18   4    0.746800    0.505811   -0.095249    10.50000    0.04493    0.08893 =
         0.06594   -0.00182    0.01261    0.00930
O20   4    0.597142    0.506130   -0.249780    10.50000    0.05685    0.09040 =
         0.05407   -0.00526    0.02019    0.00240
O22   4    0.743540    0.495381    0.089044    10.50000    0.05929    0.07788 =
         0.07186    0.00162   -0.01140    0.00986
O23   4    0.670746    0.452727    0.159277    10.50000    0.06228    0.06972 =
         0.06907    0.00837   -0.01676    0.00770
N1    3    0.707583    0.506591    0.209679    11.00000    0.06091    0.07338 =
         0.06418    0.00564   -0.02248    0.00607
PART 1
N3    3    0.944165    0.635211    0.528076    21.00000    0.13177    0.12143 =
         0.14089   -0.00495    0.00310   -0.00498
PART 0
N4    3    0.500221    0.622964   -0.003207    11.00000    0.08209    0.06419 =
         0.08099    0.02041   -0.01483    0.00915
PART 2
N5    3    1.043122    0.630430    0.472783   -21.00000    0.13280    0.12196 =
         0.14182   -0.00641    0.00148   -0.00421
PART 0
N6    3    0.722257    0.492218   -0.223743    11.00000    0.05013    0.08751 =
         0.05936   -0.00799    0.03211    0.01093

O5    4    1.104787    0.711809   -0.114056    10.50000    0.19730    0.22482 =
         0.20935    0.01320   -0.00593    0.00545
O19   4    0.899379    0.711688    0.113238    10.50000    0.23099    0.22056 =
         0.22575   -0.01402    0.00553    0.00986
N2    3    1.004988    0.647971    0.115672    11.00000    0.14120    0.21552 =
         0.19029    0.00904    0.03391   -0.00279
C2    1    0.878188    0.679934   -0.051215    11.00000    0.13532    0.20850 =
         0.18620    0.01224    0.03512    0.02496
PART 1
C3    1    0.948462    0.599975   -0.059547    10.50000    0.18912    0.19297 =
         0.20222    0.00071    0.00014    0.00209
PART 0
C5    1    1.127652    0.655527   -0.094938    11.00000    0.13978    0.21788 =
         0.18558    0.00103    0.04632    0.01559
PART 2
C7    1    1.001014    0.588874    0.073661    10.50000    0.18941    0.19514 =
         0.20185    0.00511    0.00068    0.00503
PART 0
C9    1    1.118667    0.677898    0.046953    11.00000    0.13701    0.21445 =
         0.18640    0.00408    0.04123    0.00175
C11   1    0.856536    0.657587    0.089046    11.00000    0.13842    0.21579 =
         0.18733    0.01243    0.03395    0.00860
PART 1
C13   1    1.054765    0.596704    0.047903    10.50000    0.18865    0.19334 =
         0.20094    0.00265    0.00122    0.00684
PART 2
C15   1    0.979895    0.594972   -0.075856    10.50000    0.18881    0.19435 =
         0.20273   -0.00103    0.00056    0.00439
PART 0
C16   1    0.982974    0.651443   -0.134694    11.00000    0.13836    0.21184 =
         0.17894    0.00354    0.04076    0.01941

PART 1
O11   4    0.400629    0.735691    0.400869    10.50000    0.24197    0.24706 =
         0.25424    0.00370    0.00824    0.00380
PART 2
O21   4    0.597150    0.739433    0.612841    10.50000    0.25911    0.25930 =
         0.25250   -0.00098   -0.00833   -0.00839
PART 0
N7    3    0.378486    0.649821    0.484717    11.00000    0.22722    0.26288 =
         0.12247   -0.00562    0.03486   -0.00219
C1    1    0.565673    0.683301    0.620906    11.00000    0.22782    0.25573 =
         0.11022   -0.02072    0.03732    0.00258
C4    1    0.422450    0.664021    0.625514    11.00000    0.23061    0.26020 =
         0.11668   -0.02016    0.04077    0.00458
C6    1    0.448706    0.682270    0.376891    11.00000    0.22829    0.26459 =
         0.12605   -0.00088    0.04117    0.00502
C8    1    0.592140    0.662411    0.373188    11.00000    0.22517    0.26662 =
         0.11748   -0.00891    0.04361    0.00927
C10   1    0.636118    0.650309    0.515647    11.00000    0.22575    0.26129 =
         0.11723   -0.01285    0.03800    0.00884
C12   1    0.436941    0.594279    0.458806    11.00000    0.23885    0.25576 =
         0.12434   -0.01234    0.02549   -0.00137
C14   1    0.561730    0.598251    0.545038    11.00000    0.23853    0.25777 =
         0.12830   -0.00559    0.02405    0.01005
HKLF 4




REM  mo_R3HQ_PrK_353K_0m_a.res in P2(1)2(1)2
REM wR2 = 0.2100, GooF = S = 0.988, Restrained GooF = 0.982 for all data
REM R1 = 0.0665 for 2276 Fo > 4sig(Fo) and 0.1194 for all 4371 data
REM 427 parameters refined using 727 restraints

END

WGHT      0.1189      0.0000

REM No hydrogen bonds found for HTAB generation

REM Highest difference peak  1.156,  deepest hole -0.727,  1-sigma level  0.140
Q1    1   0.9993  0.5858  0.0000  11.00000  0.05    1.16
Q2    1   0.4994  0.5867  0.5000  11.00000  0.05    0.94
Q3    1   0.5791  0.4998  0.0015  11.00000  0.05    0.91
Q4    1   0.8853  0.6086  0.0011  11.00000  0.05    0.73
Q5    1   0.6423  0.6018  0.4993  11.00000  0.05    0.72
Q6    1   0.3604  0.6017  0.5006  11.00000  0.05    0.71
Q7    1   0.5019  0.5602 -0.0316  11.00000  0.05    0.71
Q8    1   0.4991  0.6119  0.3931  11.00000  0.05    0.69
Q9    1   1.1126  0.6086 -0.0005  11.00000  0.05    0.69
Q10   1   0.9957  0.6020 -0.1341  11.00000  0.05    0.67
Q11   1   1.0007  0.5998  0.1307  11.00000  0.05    0.66
Q12   1   0.4995  0.6137  0.6066  11.00000  0.05    0.65
Q13   1   0.5092  0.4946  0.0297  11.00000  0.05    0.63
Q14   1   0.4224  0.6872  0.6149  11.00000  0.05    0.55
Q15   1   0.5814  0.6854  0.3839  11.00000  0.05    0.53
Q16   1   0.9655  0.5002  0.4994  11.00000  0.05    0.52
Q17   1   1.0301  0.6995 -0.0003  11.00000  0.05    0.50
Q18   1   0.9571  0.6976  0.0032  11.00000  0.05    0.49
Q19   1   0.8498  0.4990 -0.2441  11.00000  0.05    0.49
Q20   1   0.4928  0.7036  0.5527  11.00000  0.05    0.49
;
_shelx_res_checksum   41538

_shelx_hkl_file
;
   0   0  -1 1950.50  238.78
   0   0  -2 9258.96 1135.67
   0   0   2 9405.66 1136.06
   0   0   3  178.72   29.01
   0   0  -3  136.31   20.36
   0   0  -3  120.30   16.03
   0   0   3  121.68   16.13
   0   0  -4  980.24  120.00
   0   0   4 1045.94  127.17
   0   0   4  975.48  120.17
   0   0  -4  929.29  124.81
   0   0  -5  262.27   42.32
   0   0   5  180.82   32.35
   0   0   5  154.56   20.82
   0   0  -5  149.34   20.50
   0   0  -6  578.55   68.79
   0   0  -6  533.76   76.33
   0   0   6  529.00   68.99
   0   0   6  523.02   79.92
   0   0   6  563.36   70.16
   0   0   7   48.07   10.29
   0   0  -7   62.61   10.25
   0   0   7   72.46   40.39
   0   0   7   57.50   12.38
   0   0  -7   35.19   16.76
   0   0  -8  366.43   44.98
   0   0   8  316.02   45.21
   0   0   8  371.77   46.83
   0   0  -8  420.03   65.97
   0   0   8  293.21   62.16
   0   0   9  122.45   21.64
   0   0  -9  104.20   17.97
   0   0  -9  136.19   36.73
   0   0   9   71.84   39.07
   0   0 -10  164.92   22.64
   0   0  10  162.24   25.00
   0   0 -10  140.39   42.40
   0   0  10  147.56   62.74
   0   0  11   86.30   56.94
   0   0  11   83.80   16.95
   0   0 -11   25.96   26.83
   0   0 -11   62.76   12.97
   1   0   0    1.21    1.07
  -1   0   0    0.60    0.99
  -1   0   1    0.95    0.79
  -1   0  -1   -0.04    0.43
   1   0   1   -0.01    0.51
   1   0   1   -6.39    2.12
  -1   0   1    0.44    0.60
  -1   0  -1    1.45    2.25
  -1   0   1    1.25    2.13
  -1   0  -1    1.62    1.52
   1   0  -1    0.69    0.57
   1   0   1    0.99    1.46
   1   0  -1   -0.58    1.29
  -1   0   2    4.33    3.28
   1   0   2    3.27    2.71
   1   0  -2    0.78    2.84
  -1   0  -2   -0.15    3.38
   1   0   2    0.24    3.67
   1   0   2   -0.44    0.96
  -1   0   2    0.20    1.13
   1   0  -2    1.28    1.20
  -1   0  -2    0.73    0.99
   1   0   3    5.03    5.51
  -1   0   3    6.64    2.16
   1   0  -3    5.51    2.19
  -1   0   3    2.90    4.16
  -1   0  -3    4.47    1.95
   1   0   3    4.16    2.88
   1   0   3    3.42    1.87
  -1   0  -3    6.44    4.99
   1   0  -3    0.83    4.49
   1   0   4    5.56    3.76
  -1   0   4    6.72    2.88
   1   0  -4    5.90    2.66
  -1   0   4    2.14    5.86
   1   0   4   15.77    9.46
  -1   0  -4    5.35    6.69
   1   0  -4    0.44    6.18
  -1   0  -4    5.79    2.60
   1   0   4    6.96    2.91
  -1   0   5    4.98    3.01
  -1   0   5   12.80   12.00
  -1   0  -5    3.05    7.79
   1   0   5   12.79   14.51
   1   0  -5   18.71   15.83
  -1   0  -5    5.82    2.90
   1   0   5    7.46    4.73
   1   0  -5    1.96    2.38
   1   0   5   13.92    4.02
   1   0   6   27.86   14.84
   1   0  -6   -1.62    1.49
  -1   0   6   -7.71   10.97
  -1   0  -6    7.67   12.05
  -1   0  -6   -0.49    1.83
   1   0   6    5.93    4.58
  -1   0   6    5.46    3.20
   1   0  -6  -29.54   10.94
   1   0   6    2.29    2.73
  -1   0  -7    1.25    2.65
   1   0   7   32.78   36.00
   1   0   7    4.93    3.82
   1   0   7   -2.86    3.68
  -1   0  -7   21.99   18.25
   1   0  -7    0.73   16.63
  -1   0   7   -1.21    2.63
   1   0  -7    5.41    3.35
  -1   0   7   42.42   23.54
  -1   0   8   -0.66    3.90
  -1   0   8    4.82    4.40
   1   0   8    7.08   19.83
   1   0  -8    6.74    3.99
   1   0  -8  -17.88   13.92
  -1   0  -8    0.50    2.79
   1   0   8    7.29    5.55
  -1   0  -8    4.88   31.91
  -1   0   8    7.51   20.95
   1   0   8   12.59    5.41
   1   0   9    5.13   27.13
   1   0  -9    5.18    4.32
  -1   0  -9    2.02    3.28
   1   0  -9   17.13   20.09
  -1   0  -9   -2.69   17.14
  -1   0   9   37.51   32.10
  -1   0   9   -1.71    4.43
   1   0   9    6.42    6.75
  -1   0 -10    6.47    4.29
  -1   0  10  -47.53   43.50
   1   0  10    2.55    6.75
  -1   0 -10   18.21   37.06
   1   0 -10    3.09    3.64
   1   0  10  -19.43   75.83
  -1   0  10    6.11    6.56
   1   0 -10   11.89   25.96
   1   0  11   -2.06    6.17
   1   0 -11  -15.85   32.60
   1   0 -11    1.22    4.10
  -1   0  11   -4.32   48.04
  -1   0  11   -1.18    5.85
  -1   0 -11    0.53    3.37
  -1   0 -11   16.31   26.86
   1   0  11  -15.42   55.21
   2   0   0 9375.17 1138.25
   2   0   1  467.86   60.84
  -2   0   1  510.62   58.65
  -2   0  -1  422.66   57.73
   2   0  -1  499.15   58.56
   2   0  -1  479.89   58.69
  -2   0   1  504.74   59.07
   2   0  -1  466.34   57.78
   2   0   1  464.65   57.76
   2   0   1  477.90   59.24
  -2   0  -1  471.05   59.95
  -2   0  -1  469.52   59.36
  -2   0   2 8794.90 1077.73
   2   0   2 9102.86 1079.58
  -2   0  -2 8296.35 1078.11
   2   0  -2 9226.59 1077.28
   2   0   3 1150.11  145.20
   2   0   3 1201.22  151.19
   2   0  -3 1181.12  148.35
   2   0   3 1166.17  146.94
  -2   0  -3 1269.63  149.94
  -2   0   3 1196.17  145.21
   2   0   4 1058.01  125.54
  -2   0   4 1019.03  123.16
   2   0   4  829.88  116.63
  -2   0  -4  973.70  116.50
  -2   0   4  928.58  116.72
   2   0  -4  999.90  116.73
   2   0   4  910.52  118.55
   2   0  -4 1003.12  121.41
   2   0  -5  428.97   58.97
  -2   0  -5  413.32   52.91
   2   0   5  419.63   53.38
  -2   0   5  424.11   61.63
   2   0   5  422.11   55.33
  -2   0  -5  438.99   60.44
   2   0   5  461.81   64.58
   2   0  -5  430.83   53.17
  -2   0   5  426.60   53.31
  -2   0   6  415.96   50.22
   2   0  -6  403.25   49.91
  -2   0  -6  459.74   59.83
  -2   0   6  396.98   61.28
   2   0   6  399.21   50.23
   2   0  -6  429.35   57.72
   2   0   6  401.89   69.02
  -2   0  -6  337.72   49.42
   2   0   6  410.58   52.35
  -2   0  -7  204.38   39.79
   2   0   7  189.53   27.49
  -2   0  -7  174.67   24.68
   2   0  -7  202.31   25.20
   2   0   7  193.46   52.66
  -2   0   7  206.49   43.35
   2   0   7  181.71   25.33
  -2   0   7  189.61   25.34
   2   0  -7  199.96   36.45
  -2   0  -8  427.48   70.57
  -2   0   8  369.05   74.94
   2   0   8  436.18   60.78
  -2   0  -8  496.03   58.15
  -2   0   8  427.71   58.52
   2   0  -8  472.89   69.53
   2   0   8  483.24   82.55
   2   0  -8  473.81   58.28
   2   0   8  480.67   58.98
  -2   0  -9   72.01   32.28
   2   0   9   85.91   19.37
   2   0  -9   96.10   15.91
  -2   0   9  115.66   18.23
   2   0  -9   69.93   33.72
  -2   0   9   77.02   16.00
   2   0   9   35.92   34.48
  -2   0  -9   99.87   15.82
  -2   0   9   80.58   38.60
   2   0 -10  100.31   33.95
   2   0  10  107.67   60.00
  -2   0  10  143.11   87.58
  -2   0 -10   98.70   17.00
   2   0 -10  136.90   20.66
  -2   0  10  134.35   18.74
   2   0  10  138.92   26.93
  -2   0  11  -25.60   50.95
  -2   0 -11   66.13   37.61
   2   0  11   30.03   60.90
   2   0  11   46.58   17.39
   2   0 -11   68.15   12.19
  -2   0 -11   52.91   11.27
   2   0 -11   72.40   30.89
   3   0   0    5.70    3.10
  -3   0   0    3.02    2.57
  -3   0   1    0.52    2.22
  -3   0   1    4.18    2.55
   3   0  -1    1.58    2.03
   3   0  -1    1.73    0.76
  -3   0  -1    4.60    3.50
   3   0  -1    3.09    1.81
   3   0   1    4.25    3.39
   3   0   1    1.49    1.16
  -3   0  -1    7.19    4.65
   3   0   1    2.83    0.86
   3   0   2    4.01    1.59
   3   0  -2    2.69    3.39
  -3   0   2   -0.16    4.33
  -3   0   2    4.49    2.68
  -3   0  -2    3.59    1.95
  -3   0  -2    4.12    5.10
  -3   0  -2    2.36    3.51
   3   0  -2    4.08    2.50
   3   0   2   -7.21    7.86
   3   0  -2    4.30    1.59
  -3   0  -2    6.57    1.27
   3   0   2    6.98    3.69
   3   0  -3   10.93    2.66
  -3   0   3    7.39    6.65
  -3   0  -3    8.53    2.19
   3   0   3    8.29    4.57
   3   0   3   10.13    9.70
  -3   0  -3   19.62    6.06
   3   0  -3   10.02    5.71
  -3   0   3    9.00    3.29
  -3   0  -3   -2.88    5.94
   3   0   3    7.35    2.67
   3   0   4    5.24   11.32
   3   0  -4   -1.69    5.76
  -3   0   4    1.29    2.17
  -3   0   4    1.27    1.90
   3   0   4    4.28    4.49
  -3   0  -4    1.79    1.79
   3   0  -4    6.20    2.63
  -3   0  -4    2.09    6.91
   3   0   4    6.27    2.64
  -3   0   4    2.57    7.52
   3   0  -5    0.91    1.88
  -3   0  -5    7.22    8.05
   3   0   5    0.42    2.01
   3   0   5    6.49    4.57
  -3   0   5   -0.65    8.42
  -3   0   5    1.30    2.08
   3   0   5  -17.00   14.61
   3   0  -5   -2.55    7.67
  -3   0  -5   -1.44    1.31
   3   0  -6   -0.22    2.05
   3   0   6   -9.99   17.59
  -3   0   6    0.42    2.29
  -3   0  -6    1.95    2.35
  -3   0   6   -1.16   11.78
   3   0   6    2.92    2.76
   3   0   6   -0.39    3.61
  -3   0  -6    2.27   12.82
   3   0  -6   11.11    9.70
   3   0   7    8.38    4.42
  -3   0  -7   -9.51   14.18
  -3   0   7    3.94    3.84
   3   0  -7   11.28    4.43
   3   0  -7   13.79   13.80
   3   0   7    6.12   24.56
  -3   0   7   -9.80   18.34
  -3   0  -7    7.92    3.60
   3   0   7    2.26    5.24
   3   0   8    6.02    3.54
   3   0   8   42.86   57.72
   3   0  -8   -7.97   13.62
   3   0  -8    1.36    2.93
  -3   0   8   -2.33   42.53
  -3   0   8    3.55    3.96
  -3   0  -8  -27.01   15.68
  -3   0  -8    1.65    3.03
   3   0   8    6.61    6.48
   3   0   9  -23.10   53.01
  -3   0  -9   45.22   26.02
   3   0  -9    7.62   17.53
  -3   0   9   -2.27    3.43
  -3   0  -9    5.31    3.79
   3   0   9   -2.43    5.78
   3   0  -9    0.07    3.56
  -3   0   9  -11.12   33.20
  -3   0 -10   10.40    5.01
  -3   0  10   -0.66   38.24
   3   0 -10   -8.90   22.07
   3   0 -10    2.54    3.85
   3   0  10    3.97    9.65
   3   0  10   14.73   52.09
  -3   0 -10  -46.15   22.90
  -3   0  10   -0.55    4.24
   3   0 -11    2.88    4.37
   3   0 -11   51.63   36.42
  -3   0 -11   -8.12   31.14
  -3   0  11  -70.99   48.34
  -3   0 -11    4.14    4.37
   4   0   0  894.96  111.11
  -4   0   0  893.88  111.41
  -4   0  -1  997.57  112.68
  -4   0   1  913.72  112.01
  -4   0  -1  893.81  113.72
   4   0   1  856.94  113.22
  -4   0   1  913.21  112.95
   4   0   1  877.91  110.68
   4   0  -1  863.58  110.62
  -4   0  -1  995.87  113.55
   4   0  -1  910.45  112.60
   4   0  -1  913.48  111.59
   4   0   2  997.71  124.86
   4   0   2 1002.13  122.04
   4   0  -2 1025.86  121.99
   4   0  -2  978.56  123.47
  -4   0  -2  988.04  125.16
   4   0   2  914.95  128.33
   4   0  -2 1015.85  123.31
  -4   0   2 1019.56  123.60
  -4   0  -2  998.73  125.60
  -4   0   2 1016.23  124.69
  -4   0   3  658.98   80.70
  -4   0  -3  563.33   80.45
   4   0   3  650.57   85.54
  -4   0  -3  624.56   79.46
   4   0   3  605.63   78.80
   4   0  -3  644.46   78.71
  -4   0   3  615.80   76.97
   4   0  -3  617.30   75.97
   4   0   3  588.63   76.05
  -4   0  -3  635.08   75.52
   4   0   4  460.86   56.39
   4   0   4  414.76   58.88
   4   0   4  505.43   69.00
  -4   0   4  557.22   64.04
   4   0  -4  425.60   59.82
  -4   0   4  443.42   56.67
  -4   0  -4  450.11   55.70
   4   0  -4  451.87   56.17
  -4   0  -4  449.60   62.30
   4   0   5  428.07   64.45
  -4   0  -5  313.28   40.23
  -4   0   5  347.84   50.63
  -4   0   5  325.36   40.95
   4   0   5  300.84   40.93
   4   0   5  326.71   43.99
   4   0  -5  341.56   46.26
  -4   0  -5  304.80   48.20
   4   0  -5  333.25   40.80
   4   0  -6  541.62   64.69
   4   0  -6  479.70   70.83
  -4   0  -6  588.41   74.78
   4   0   6  495.53   64.93
   4   0   6  534.03   82.96
  -4   0  -6  512.33   64.06
   4   0   6  503.60   68.00
   4   0  -7  174.21   33.09
   4   0   7  139.90   23.05
   4   0   7  128.85   19.99
   4   0  -7  154.18   19.96
  -4   0  -7  149.11   33.54
  -4   0   7  175.38   38.26
  -4   0  -7  148.67   19.42
   4   0   7  127.81   43.32
  -4   0   8  183.26   47.26
   4   0  -8  195.66   41.67
   4   0   8  110.62   48.99
   4   0   8  188.11   30.12
  -4   0  -8  189.54   38.24
  -4   0  -8  198.26   26.18
   4   0  -8  224.48   27.02
  -4   0  -9  121.33   17.04
   4   0   9  118.63   60.80
   4   0  -9  120.51   17.52
  -4   0   9  132.41   46.08
   4   0  -9  176.52   37.42
  -4   0  -9   68.41   36.63
   4   0 -10  156.02   38.50
   4   0 -10  109.83   17.53
  -4   0 -10  127.30   16.99
  -4   0 -10   71.20   34.74
  -4   0 -11   54.60   37.69
   4   0 -11   36.52    8.86
  -4   0 -11   33.30    8.10
  -4   0  11  -30.06   60.26
   4   0  11  -85.53   70.35
   4   0 -11   12.75   28.12
   5   0   0    2.25    2.97
  -5   0   0    4.65    4.66
   5   0   1    3.86    1.21
   5   0   1    5.44    1.67
  -5   0  -1    8.66    5.29
  -5   0  -1    6.04    5.04
   5   0  -1    3.73    1.05
  -5   0  -1   -1.74    3.55
  -5   0   1   -0.84    3.53
   5   0  -1   -1.57    2.98
   5   0   1    1.71    3.35
  -5   0   1    4.99    4.85
   5   0  -2    2.75    1.47
  -5   0   2   -4.08    5.52
   5   0   2    1.56    1.53
   5   0   2    2.93    4.98
  -5   0  -2    1.84    4.67
  -5   0  -2    4.31    6.40
  -5   0   2    1.83    3.11
   5   0  -2   -0.76    2.18
  -5   0  -3    7.39    7.03
   5   0  -3    0.75    1.44
   5   0   3    1.93    1.73
   5   0   3    2.66    4.34
   5   0   3  -18.75   13.30
   5   0  -3    0.45    4.44
  -5   0   3   -6.22    6.97
  -5   0   3    2.15    2.72
  -5   0  -3   -0.09    3.54
  -5   0   4    2.23    3.41
   5   0  -4    2.20    2.02
   5   0   4   12.70   16.85
  -5   0  -4   -0.63    4.19
  -5   0  -4   16.74    3.30
   5   0   4    3.36    4.23
   5   0  -4    4.44    6.20
   5   0   4    5.19    2.73
  -5   0  -4    4.32    1.56
  -5   0  -4    9.04   10.00
  -5   0   4    8.57    9.88
   5   0   5   21.46    6.92
   5   0  -5   -4.19    7.83
   5   0  -5   12.61    4.14
  -5   0   5   -4.01   11.30
  -5   0  -5   18.20    5.92
   5   0   5   11.81    4.37
   5   0   5   36.97   24.03
  -5   0  -5    6.42    2.61
  -5   0  -5  -12.28   10.91
  -5   0   5   17.52    5.06
  -5   0  -6    5.00    2.44
   5   0  -6    1.51    2.67
   5   0  -6   -1.10    8.83
   5   0   6    4.75    3.91
   5   0   6   -1.14    4.46
  -5   0   6   19.76   18.31
  -5   0  -6  -11.08   12.53
   5   0   6   19.41   28.17
  -5   0   7  -26.62   16.70
   5   0   7  -23.19   30.74
  -5   0  -7    3.69    2.67
   5   0   7   12.48    6.87
   5   0  -7    3.77    3.53
   5   0   7    4.76    4.11
  -5   0  -7   -9.25   17.01
   5   0  -7    3.70   12.23
   5   0   8  113.42   43.34
   5   0  -8   23.16   16.75
  -5   0  -8   -0.66   21.07
  -5   0  -9  -10.53   22.40
   5   0  -9   -1.34   16.55
  -5   0  -9    9.64    3.96
   5   0  -9    4.72    4.18
  -5   0   9  -31.38   32.10
   5   0  10  -48.75   60.25
  -5   0 -10   24.87   33.87
   5   0 -10   -2.68    3.39
  -5   0  10  -35.69   38.69
   5   0 -10   26.81   23.22
  -5   0 -10    0.81    3.37
   6   0   0  529.90   66.52
   6   0   0  540.46   70.09
  -6   0   0  595.61   71.20
  -6   0   1  251.53   32.25
   6   0  -1  236.51   31.41
   6   0   1  249.74   32.47
  -6   0  -1  247.95   33.33
   6   0   1  208.44   28.64
   6   0  -1  236.67   28.31
   6   0   1  224.80   28.48
   6   0  -2  433.41   53.60
  -6   0  -2  500.45   57.77
   6   0  -2  408.24   55.15
  -6   0  -2  449.23   57.34
   6   0  -2  424.13   55.91
  -6   0   2  434.70   56.62
   6   0   2  422.78   53.81
  -6   0  -2  464.17   58.75
  -6   0   2  463.05   56.89
   6   0   2  413.69   57.48
  -6   0   3  150.24   25.59
  -6   0  -3  162.21   28.57
   6   0   3  121.31   17.28
   6   0  -3  129.11   17.08
  -6   0   3  117.95   19.20
  -6   0  -3  170.56   25.89
   6   0   3  139.11   20.98
   6   0  -3  130.44   19.99
   6   0  -3  155.77   19.33
  -6   0   4  532.43   69.77
  -6   0   4  536.23   75.05
   6   0   4  495.89   71.81
  -6   0  -4  562.01   73.65
   6   0  -4  544.62   67.98
  -6   0  -4  635.83   75.44
   6   0  -4  632.71   71.86
   6   0   4  522.12   68.28
   6   0  -5  235.26   30.81
  -6   0  -5  328.60   47.54
  -6   0   5  283.28   44.65
   6   0   5  238.75   31.20
   6   0   5  228.99   34.77
  -6   0  -5  201.86   30.60
  -6   0  -5  257.18   29.89
  -6   0   5  260.90   32.27
   6   0  -5  242.48   36.02
   6   0   5  201.89   52.86
  -6   0   6  514.50   73.29
  -6   0   6  449.31   59.89
  -6   0  -6  483.58   58.42
   6   0  -6  496.06   59.47
   6   0   6  454.99   64.17
  -6   0  -6  466.62   69.47
   6   0   6  474.47   59.95
   6   0   6  416.24   84.64
   6   0  -6  466.59   65.32
  -6   0  -7  238.93   29.49
   6   0  -7  247.03   30.61
   6   0   7  252.02   31.29
   6   0   7  341.46   73.90
  -6   0  -7  175.70   41.46
  -6   0   7  363.66   59.90
   6   0  -7  215.41   39.96
  -6   0  -7  179.98   31.54
   6   0  -8  140.40   30.87
  -6   0  -8  118.08   16.36
  -6   0  -8   77.72   29.04
  -6   0   8  103.42   39.50
   6   0  -8  136.45   17.63
   6   0   9   36.79   57.02
   6   0  -9    9.57   21.62
  -6   0  -9   47.90   29.57
  -6   0   9   46.79   37.74
   6   0  -9   55.14   10.00
  -6   0  -9   29.32    6.89
   6   0 -10   68.29   12.63
  -6   0 -10   56.16   10.42
  -6   0 -10   65.06   41.67
   6   0  10   66.48   73.52
   6   0 -10   53.36   24.49
  -7   0   0   19.30    8.82
   7   0   0    6.52    1.30
   7   0   0    1.09    3.66
   7   0  -1    2.03    0.99
   7   0  -1    3.00    3.76
   7   0   1    1.12    1.41
   7   0   1   -0.58    3.40
  -7   0   1    0.65    3.80
   7   0   1    5.31    1.64
  -7   0  -1   -0.33    4.23
  -7   0  -2    7.84    6.04
   7   0   2   -0.12    4.06
  -7   0  -2    5.65    6.46
  -7   0   2    5.47    5.47
   7   0  -2    2.43    1.50
  -7   0  -2  -12.69    6.68
   7   0   2    1.31    1.73
   7   0  -2   14.41    5.18
  -7   0   3   10.43   10.77
   7   0   3    4.98    4.98
  -7   0  -3    0.70   11.14
  -7   0  -3    3.57    9.06
   7   0  -3    5.53    3.94
   7   0  -3    5.38    2.30
  -7   0  -3    9.03    6.74
   7   0  -3   -2.70    5.72
  -7   0   3   -0.36    3.56
   7   0   3    6.91    2.90
   7   0   4    0.23    4.73
   7   0  -4    0.88    1.99
  -7   0  -4    6.64    8.01
  -7   0  -4   -1.99   10.85
   7   0   4   -0.28    2.38
  -7   0   4    0.14    3.63
   7   0  -4   -2.46    7.28
  -7   0   4    8.59   13.19
   7   0   5   14.19   33.61
   7   0   5    4.64    3.85
   7   0  -5  -16.03    8.24
  -7   0  -5   -0.88   13.51
   7   0  -5    0.67    2.49
  -7   0   5    6.96   17.57
  -7   0   5    4.29    4.73
   7   0   5    7.69    6.49
   7   0   6    7.41    4.76
  -7   0  -6   11.01    2.40
  -7   0   6    4.34    4.91
  -7   0  -6    2.30    1.70
  -7   0  -6  -24.11   14.14
   7   0  -6   13.18   12.56
  -7   0   6    8.38   22.35
   7   0  -6    7.52    3.54
  -7   0   7    8.39   27.10
   7   0   7  -17.63   46.94
   7   0   7    3.94    5.00
  -7   0   7    9.03    5.49
   7   0  -7   11.73    4.41
  -7   0  -7   12.00    3.21
   7   0  -7    3.83   13.26
  -7   0  -7   22.54    5.49
  -7   0  -7   11.17   19.82
   7   0  -8    1.67    3.25
  -7   0   8  -10.53   33.31
   7   0   8   35.15   50.88
  -7   0  -8   22.66   23.20
  -7   0  -8    0.76    2.04
  -7   0  -8    0.32    3.76
   7   0  -8  -31.05   16.37
  -7   0  -9    7.09   26.73
  -7   0   9   18.33   41.26
  -7   0  -9    0.11    5.15
   7   0  -9  -36.57   19.38
   7   0  -9    1.38    4.11
   7   0   9  155.26   74.57
  -8   0   0  310.84   46.50
   8   0   0  342.15   40.76
   8   0   0  318.05   45.12
   8   0  -1  165.43   20.81
  -8   0   1  181.65   26.62
  -8   0  -1  171.76   27.42
   8   0  -1  166.89   24.92
   8   0  -2  475.10   61.16
   8   0   2  434.46   62.41
   8   0  -2  477.11   57.51
  -8   0   2  472.84   62.46
   8   0   2  453.90   57.98
  -8   0  -2  511.11   65.02
   8   0   3  113.70   15.39
  -8   0   3  132.30   24.86
  -8   0  -3  112.18   24.88
   8   0  -3  112.56   14.90
   8   0   3  125.91   22.71
  -8   0  -3   86.49   19.76
   8   0  -3  104.99   17.54
   8   0  -3  137.98   20.18
  -8   0  -3  128.01   22.89
  -8   0   3  148.15   24.77
   8   0   4  207.05   26.83
  -8   0   4  186.50   29.10
  -8   0  -4  216.25   35.43
  -8   0  -4  269.03   42.11
   8   0  -4  246.03   31.64
  -8   0  -4  242.81   41.85
   8   0  -4  189.38   26.13
  -8   0   4  207.30   38.46
   8   0   5   98.93   13.50
  -8   0   5  113.56   30.64
  -8   0   5  103.81   15.47
  -8   0  -5   48.85   20.80
   8   0  -5   85.28   12.64
   8   0  -5   93.87   20.84
   8   0  -6  139.45   28.01
   8   0  -6  119.53   17.91
  -8   0  -6  115.92   29.74
   8   0   6  140.85   19.09
  -8   0   6  146.27   38.98
  -8   0   6  148.99   20.28
   8   0  -7   57.12    9.76
  -8   0   7   43.95   10.97
  -8   0  -7   58.56   23.81
  -8   0   7    8.28   32.99
   8   0   7  -18.01   49.97
   8   0  -7   33.74   18.16
   8   0   8  -19.99   61.71
  -8   0  -8   61.75   31.03
   8   0  -8   49.00   21.78
  -8   0   8   39.15   40.46
   9   0   0    6.59    1.90
  -9   0   0    7.65    7.05
   9   0   0    3.87    5.61
  -9   0  -1   -2.27    5.85
   9   0  -1    0.94    1.31
   9   0  -1   -2.95    4.02
   9   0   1    3.79    6.34
  -9   0   1   -0.21    4.72
   9   0   1   10.59    2.87
  -9   0  -2    2.65    7.70
   9   0  -2    7.84    5.63
  -9   0   2    7.23    7.64
   9   0   3    3.75    3.16
  -9   0  -3   -5.06    8.50
  -9   0  -3   10.65   12.17
   9   0  -3    2.86    2.06
   9   0  -3    1.49    5.24
  -9   0   3    1.96    5.75
  -9   0  -3   -3.34    8.74
  -9   0  -4  -31.53   14.95
  -9   0  -4   22.50   12.05
  -9   0   4  -14.88   20.26
   9   0  -4    2.39    2.26
  -9   0   4    7.12    7.46
   9   0  -4   -4.51   11.37
   9   0   4    9.17    4.10
   9   0  -5    5.09   13.28
  -9   0   5   17.53   26.06
  -9   0   5   13.94    6.64
   9   0  -5    5.86    3.16
   9   0   5    6.75    4.66
  -9   0  -5    8.69   15.01
  -9   0  -5   14.21   22.00
   9   0   6    3.44    4.15
   9   0  -6    0.73    2.47
  -9   0   6   -2.40    3.53
  -9   0   6   -0.44   31.66
  -9   0  -6    0.41   18.28
   9   0  -6   12.17   15.38
  -9   0  -6   14.32   25.74
   9   0  -7    4.83   17.70
  -9   0  -7   33.22   24.32
  -9   0   7  102.31   42.54
  10   0   0  137.77   18.29
 -10   0   0  175.11   33.15
  10   0  -1   61.21    8.25
 -10   0   1   74.48   17.47
  10   0   1   52.29   10.35
 -10   0  -1   98.96   23.10
 -10   0  -2   92.94   25.60
 -10   0   2  147.73   25.60
  10   0  -2   95.34   12.84
  10   0  -2  111.07   23.00
 -10   0  -3   85.77   20.79
 -10   0   3   99.72   20.29
  10   0  -3   71.81   10.11
  10   0  -3   71.74   18.45
 -10   0  -4   94.50   23.27
 -10   0  -4  110.67   22.65
 -10   0   4  179.99   29.57
  10   0  -4  125.20   16.25
 -10   0  -5    6.97   22.84
  10   0  -5   44.39    7.88
  10   0   5   46.51   10.11
 -10   0   5   60.81   14.45
  10   0  -5   34.21   19.06
 -10   0  -5   53.46   19.16
 -10   0   5    6.73   32.94
 -10   0   6   81.21   17.42
  10   0  -6   73.86   11.14
 -10   0  -6   94.93   34.22
 -10   0   6  101.49   45.74
  10   0  -6   89.67   24.69
 -10   0  -6   46.65   26.04
 -11   0   0    5.22    9.75
  11   0   0    2.53    2.10
  11   0  -1    6.23    2.33
 -11   0   1    4.77    7.61
 -11   0  -1    5.27    9.47
  11   0  -2    0.86    1.86
 -11   0   2    9.08    9.03
 -11   0  -2    2.33    8.29
  11   0  -3    3.68    2.13
 -11   0   3    0.06    6.29
 -11   0   4   -1.78    5.29
  11   0  -4   -1.07    1.90
   0   1  -1    1.25    0.54
   0  -1   1    1.67    0.66
   0  -1  -1    2.54    0.86
   0   1   1    1.00    2.65
   0  -1  -1    1.29    2.42
   0  -1   1    3.20    1.67
   0   1   1    3.37    1.03
   0  -1  -1    0.03    0.63
   0   1   1    0.97    0.78
   0   1  -1    3.09    1.65
   0  -1   2    1.96    3.71
   0   1  -2    3.85    1.33
   0  -1  -2    2.56    1.33
   0  -1   2    3.40    1.44
   0  -1  -2    5.99    5.49
   0   1   2    0.81    1.24
   0   1  -2    4.93    5.40
   0   1   2    3.00    3.77
   0   1   2    0.65    1.61
   0   1   3   -1.68    1.63
   0  -1   3   -0.28    1.17
   0   1   3   -3.92    5.62
   0  -1   3   -3.91    3.72
   0   1  -3    0.19    1.08
   0   1  -3    6.50    4.17
   0  -1  -3    0.04    1.27
   0   1   3   -0.65    1.45
   0  -1  -3    5.81    6.25
   0   1  -4    1.83    1.84
   0   1  -4    6.20    7.58
   0   1   4    6.59    3.18
   0  -1  -4    1.26    2.08
   0  -1   4    3.07    2.20
   0   1   4   -2.50   10.31
   0  -1  -4    2.37    7.03
   0   1   4    2.89    2.42
   0  -1   4   -1.46    5.46
   0   1   5    0.10    1.96
   0  -1   5    3.04    2.33
   0   1  -5   -1.42    1.49
   0  -1  -5    1.54    2.13
   0  -1  -5    6.00    9.71
   0   1   5   -4.84   14.11
   0  -1   5   -5.36    8.76
   0   1  -5    5.06    7.74
   0   1   5    2.10    2.77
   0   1   6    0.46   14.22
   0  -1  -6   -4.08   12.16
   0  -1  -6    9.88    3.70
   0  -1   6    2.48   11.69
   0   1  -6    4.64    3.05
   0   1   6    1.51    3.20
   0   1  -6    4.97    9.55
   0   1   6    0.44    2.41
   0  -1   6    3.54    2.41
   0  -1   7    1.60    2.51
   0   1  -7   -3.46    1.74
   0   1   7   -1.52    3.01
   0  -1   7    0.21   17.15
   0   1  -7   13.41   15.74
   0   1   7   -1.29    2.14
   0   1   7    9.14   19.24
   0  -1  -7  -25.62   23.72
   0  -1  -7   -0.48    1.93
   0  -1   7   -0.93    3.49
   0  -1   8   17.81   32.83
   0   1   8    1.43    4.64
   0  -1  -8    3.18    3.39
   0  -1   8   10.35    5.23
   0  -1   8    2.84    5.29
   0   1  -8   18.51   15.09
   0  -1  -8    4.26   21.57
   0   1   8    4.62    3.83
   0   1  -8   -0.28    2.65
   0   1   8  -58.14   41.56
   0  -1   9  -38.42   26.90
   0  -1   9    6.12    6.62
   0  -1  -9   46.13   38.84
   0  -1  -9   -0.64    2.84
   0   1  -9  -57.96   34.28
   0   1  -9    5.93    3.82
   0   1   9   56.36   31.03
   0   1   9   -2.73    4.00
   0   1 -10    8.39    4.83
   0   1  10    4.54    6.44
   0  -1 -10    5.57    4.59
   0  -1  10    3.00    6.55
   0   1  10    9.79   40.53
   0  -1 -10    1.87   25.61
   0  -1  10    2.78   38.73
   0   1 -10   51.26   49.14
   0   1 -11    6.93    5.21
   0   1  11    2.47    6.80
   0  -1 -11    5.82    4.49
   0  -1  11   22.50   49.76
   0  -1 -11  -26.10   25.94
   0   1 -11  -57.88   57.35
   0   1  11   56.63   58.48
   0  -1  11   11.24    8.39
  -1   1   1 1759.77  218.93
  -1  -1  -1 1833.97  220.08
   1  -1   1 1708.98  218.43
   1   1  -1 1790.51  218.12
  -1   1  -1 1753.15  218.33
   1   1   1 1768.94  220.35
   1  -1  -1 1898.27  218.72
  -1   1   2  440.33   54.77
  -1  -1  -2  454.63   54.75
   1  -1   2  442.87   54.65
   1  -1   2  450.79   57.70
   1   1  -2  447.22   54.66
   1   1  -2  476.34   56.99
  -1  -1  -2  437.61   55.66
  -1  -1  -2  520.70   59.12
  -1  -1   2  452.83   57.23
   1   1   2  466.32   59.49
  -1   1  -2  433.94   57.11
  -1   1  -2  453.53   54.58
   1  -1  -2  440.01   54.77
   1  -1  -2  438.47   57.44
   1   1   2  419.24   55.49
   1   1   2  420.24   54.77
  -1  -1   2  443.48   54.70
   1   1  -3 1836.96  219.46
  -1   1   3 1829.82  221.24
  -1  -1  -3 1798.25  220.87
   1  -1  -3 1706.69  219.83
  -1  -1   3 1747.00  220.01
   1   1   3 1747.82  217.12
  -1   1  -3 1721.13  219.64
   1   1   3 1984.06  222.93
   1   1   3 1674.62  216.15
   1   1  -4  723.77   90.37
  -1   1   4  683.83   90.54
   1   1  -4  828.88   95.60
   1  -1   4  752.15   97.15
  -1   1   4  739.22   97.40
   1  -1   4  720.04   90.50
  -1  -1  -4  740.98   96.45
  -1  -1  -4  697.38   90.39
   1   1   4  732.24   90.66
  -1  -1   4  823.30   97.05
   1  -1  -4  794.98   96.15
   1  -1  -4  722.08   90.51
  -1  -1   4  714.06   90.50
  -1   1  -4  785.26   95.81
   1   1   4  758.83   98.73
  -1   1  -4  753.54   90.32
   1   1   4  709.33   91.67
   1  -1   5 1289.92  168.99
  -1  -1  -5 1331.72  160.65
  -1   1   5 1328.84  169.85
  -1   1   5 1248.44  160.80
   1   1  -5 1335.12  160.59
   1   1  -5 1234.89  165.88
   1  -1   5 1339.39  160.85
   1  -1   5 1259.44  162.39
   1   1   5 1283.63  160.91
  -1   1  -5 1321.46  160.47
  -1  -1   5 1261.32  160.75
   1  -1  -5 1410.88  167.60
   1  -1  -5 1404.31  160.82
  -1  -1   5 1258.18  168.05
   1   1   5 1444.20  171.99
   1   1   5 1287.06  162.07
   1  -1   6  177.95   23.88
   1  -1   6  185.76   25.61
   1   1  -6  188.22   23.64
  -1   1   6  108.47   31.27
  -1  -1  -6  183.38   23.67
  -1  -1  -6  195.43   38.41
  -1   1   6  180.01   24.21
   1   1  -6  253.71   39.58
  -1   1   6  169.26   23.79
   1   1   6  192.98   25.43
  -1  -1   6  173.81   23.81
  -1  -1   6  273.88   50.92
   1  -1  -6  189.34   23.83
  -1   1  -6  163.43   30.70
   1   1   6  159.18   23.75
   1   1   6  360.41   63.15
   1  -1  -6  131.67   29.75
  -1   1  -6  196.72   23.59
  -1  -1  -7  397.43   60.46
   1  -1   7  223.99   32.74
  -1   1   7  234.60   31.22
  -1  -1  -7  218.89   30.73
  -1   1   7  204.59   46.33
   1   1  -7  242.85   30.81
   1   1  -7  416.86   59.35
   1  -1   7  250.75   48.09
   1  -1   7  223.89   31.10
   1   1   7  245.08   32.68
   1  -1  -7  236.77   30.92
  -1   1  -7  212.41   39.69
  -1  -1   7  288.72   51.58
   1   1   7  245.40   31.39
   1   1   7  196.59   47.77
  -1  -1   7  232.95   31.16
   1  -1  -7  327.03   47.99
  -1   1  -7  234.38   30.68
  -1   1   8  158.17   20.64
  -1   1   8  131.44   19.78
  -1   1   8  179.33   42.56
  -1  -1  -8  129.46   19.34
   1  -1   8  181.00   40.85
  -1  -1  -8  197.67   38.77
   1   1  -8  141.85   19.50
   1   1  -8  137.02   29.83
   1  -1   8  128.94   19.76
   1  -1   8  168.79   22.44
   1   1   8  150.45   21.53
  -1   1  -8  137.48   19.35
   1   1   8  227.61   49.38
   1  -1  -8  282.61   45.49
  -1  -1   8   79.16   31.28
  -1  -1   8  139.16   20.00
   1  -1  -8  122.27   19.38
   1   1   8  146.82   20.18
  -1   1  -8  142.97   30.19
   1   1  -9  149.75   21.85
   1  -1   9  217.96   66.77
  -1  -1  -9  199.22   41.05
   1  -1   9  177.48   25.21
   1   1  -9  119.35   34.69
  -1  -1  -9  156.21   21.97
  -1   1   9  182.32   23.48
  -1   1   9  148.73   48.82
  -1   1  -9  112.16   32.51
   1  -1  -9  146.45   21.98
  -1   1  -9  144.77   21.71
  -1  -1   9  226.15   53.89
  -1  -1   9  178.18   24.14
   1   1   9  156.67   67.36
   1  -1  -9  133.92   35.54
   1   1   9  178.88   24.59
  -1   1  10   19.57   44.30
   1   1 -10   73.76   13.14
  -1   1  10   58.57   13.90
   1  -1  10   75.57   16.93
  -1  -1 -10   62.77   36.64
   1   1 -10   54.04   30.14
  -1  -1 -10   68.17   12.36
   1  -1  10   18.71   39.87
  -1  -1  10   14.80   36.63
  -1   1 -10    6.17   23.76
  -1  -1  10   84.75   16.58
   1  -1 -10   71.67   12.94
  -1   1 -10   59.22   11.63
   1  -1 -10   39.81   25.20
   1   1  10   69.95   47.06
   1   1  10   67.99   16.02
  -1   1  11  199.30  113.33
   1  -1  11   90.66   22.02
  -1  -1 -11   91.94   17.21
   1  -1  11  106.35   55.01
   1   1 -11   90.82   17.20
  -1   1  11  118.55   17.32
   1   1 -11   69.81   44.47
  -1  -1 -11   36.72   33.42
   1   1  11   96.35   20.83
   1  -1 -11  102.04   17.54
  -1   1 -11  119.27   70.95
  -1  -1  11   63.85   53.12
  -1   1 -11   99.09   17.06
   1   1  11   76.64   61.02
   1  -1 -11   59.61   38.30
  -1  -1  11  135.50   22.85
  -2  -1   0    2.04    1.43
   2   1   0    2.10    0.53
   2   1   0    1.30    1.67
   2  -1   0    0.94    1.71
   2   1   0    5.77    2.21
  -2   1   0    1.28    1.89
  -2  -1   0    3.79    2.09
   2  -1   1   -0.21    2.12
   2   1  -1    0.09    1.30
   2  -1   1   -5.54    2.31
  -2  -1  -1    5.83    5.41
  -2   1   1   -1.76    2.30
  -2  -1  -1    0.19    0.57
   2   1  -1    0.81    0.69
   2  -1   1    0.87    0.56
  -2   1   1    2.54    1.88
  -2  -1  -1    2.11    1.09
  -2  -1  -1    0.91    2.08
   2   1  -1    1.96    1.52
  -2  -1   1    2.22    1.81
   2   1   1    2.09    2.44
  -2   1  -1   -1.35    1.92
  -2  -1   1   -0.40    1.83
   2   1   1    1.01    0.93
   2  -1  -1    3.06    2.07
  -2   1  -1    0.15    2.30
   2  -1  -1    1.51    1.49
   2   1   1   -0.77    4.53
  -2  -1   1    0.42    0.63
   2   1   1    0.53    1.18
   2   1  -2    2.14    2.80
   2   1  -2    8.13    1.80
   2  -1   2   10.05    4.31
   2  -1   2   -2.09    3.63
  -2  -1  -2    6.77    5.54
   2  -1   2    1.73    1.25
  -2   1   2    1.79    3.88
  -2  -1  -2    3.35    1.44
  -2  -1  -2    9.83    4.53
  -2  -1   2    4.78    2.16
  -2  -1   2   11.22    4.39
  -2   1  -2    4.70    1.30
   2   1   2    3.48    1.68
   2   1   2    2.92    6.51
   2  -1  -2   11.92    4.82
  -2  -1   2    7.37    1.77
   2   1   2   11.52    3.88
   2  -1  -2    2.84    1.47
  -2   1  -2    2.61    3.66
  -2  -1  -3    7.90    2.23
  -2  -1  -3    2.32    3.31
   2  -1   3    4.28    1.84
   2   1  -3    3.91    4.04
  -2  -1  -3    2.71    5.79
  -2   1   3    2.91    1.95
   2  -1   3    0.98    5.74
   2   1  -3    2.74    1.64
   2  -1   3    7.42    3.94
   2  -1  -3    4.83    4.86
  -2   1  -3   -0.09    5.05
   2   1   3    5.54    3.92
   2   1   3    7.82    8.36
  -2   1  -3    2.83    1.55
   2  -1  -3    2.16    1.74
  -2  -1   3    1.23    1.52
   2   1   3    2.07    1.84
  -2  -1  -4    2.76    1.94
   2  -1   4    4.07    4.19
   2   1  -4    4.53    2.46
  -2  -1  -4    4.84    7.30
  -2   1   4    0.49    7.38
   2  -1   4    6.76    9.41
   2  -1   4    0.89    2.02
  -2   1   4    1.05    2.13
   2   1  -4    1.14    4.84
   2  -1  -4   -1.72    5.45
   2   1   4    5.24    4.02
   2  -1  -4    2.10    2.06
  -2   1  -4    3.57    2.10
  -2   1  -4   -3.74    5.79
   2   1   4    0.17   10.00
   2   1   4    2.56    2.34
  -2  -1   4   21.20    8.65
  -2  -1   4    2.62    2.12
  -2   1   5   -4.00    9.53
  -2   1   5    1.49    2.51
  -2  -1  -5    2.33    2.10
   2   1  -5  -15.55    6.50
   2  -1   5    5.59    3.03
   2   1  -5    4.16    2.60
   2  -1   5   -0.97   10.01
   2  -1   5    5.34    4.93
  -2  -1  -5   -6.48    7.38
  -2   1  -5    1.58    1.86
   2   1   5    2.37    2.68
  -2   1  -5   -5.03    6.81
   2  -1  -5    2.22    2.54
   2  -1  -5   -5.97    7.31
   2   1   5   18.29   19.40
  -2  -1   5    4.81    2.67
  -2  -1   5   13.93    7.62
   2   1   5    4.07    4.28
  -2   1   6    2.44    2.87
  -2   1   6    7.40   11.86
   2  -1   6   10.95   14.76
  -2  -1  -6    4.90    2.58
   2  -1   6    1.96    2.46
   2   1  -6    1.03    2.19
   2  -1   6   -0.87    3.43
   2   1  -6  -14.76    8.44
  -2  -1  -6   -5.29   15.41
   2  -1  -6    2.99    2.53
  -2  -1   6   -4.99   12.42
  -2   1  -6   -6.44    8.55
  -2   1  -6    2.91    2.54
   2   1   6   13.37   17.32
   2   1   6    6.23    3.30
   2   1   6    9.76    4.67
   2  -1  -6   -3.83    8.95
  -2  -1   6    2.63    2.62
  -2  -1  -7   -0.01   15.92
   2   1  -7    4.59   13.00
   2  -1   7    8.74   21.14
  -2   1   7    5.25   15.57
   2  -1   7    2.91    3.36
  -2   1   7    3.96    3.66
   2   1  -7    4.55    3.17
  -2  -1  -7   -0.39    2.40
   2  -1  -7   49.29   29.21
   2   1   7    5.63    5.45
  -2  -1   7    1.40    2.64
  -2  -1   7   -2.15   18.33
   2   1   7  -44.04   22.04
  -2   1  -7    4.70    3.25
   2  -1  -7    5.56    3.31
   2   1   7    3.03    3.32
  -2   1  -7   16.48   12.11
   2  -1   8    4.00    4.46
   2   1  -8  -37.35   14.48
   2   1  -8   18.05    5.24
  -2   1   8   13.08    5.31
  -2  -1  -8    6.55    4.05
  -2  -1  -8   37.56   20.95
  -2   1   8    6.68    4.76
   2  -1   8   13.09    7.37
   2  -1   8   -6.61   24.60
  -2   1   8   22.21   20.24
   2  -1  -8    4.32   12.47
  -2   1  -8    4.22    3.67
  -2   1  -8  -42.30   31.07
   2   1   8    8.49    5.50
  -2  -1   8   11.16   20.19
   2  -1  -8    7.80    4.24
  -2  -1   8    2.77    4.14
   2   1   8   49.37   56.45
   2   1   8   10.97    7.12
  -2   1   9   -0.47    3.44
  -2   1   9    0.82    3.47
  -2  -1  -9   14.75   18.31
   2  -1   9   -0.32    5.24
  -2   1   9  -18.53   26.96
   2   1  -9    0.96    3.44
   2   1  -9   -7.06   15.35
   2  -1   9    4.75   33.40
  -2  -1  -9    3.01    3.10
  -2   1  -9    1.04    3.03
   2   1   9    3.73    5.97
  -2  -1   9   -0.08    4.42
  -2  -1   9  -12.76   21.66
  -2   1  -9  -12.21   16.36
   2  -1  -9   23.37   37.53
   2   1   9  -19.31   49.13
   2  -1  -9   -2.63    1.99
  -2  -1   9    2.09    4.38
   2   1 -10    0.29    3.24
  -2  -1 -10    1.96    3.39
   2  -1  10   10.68   56.09
  -2  -1 -10  -23.45   23.61
  -2   1  10    6.31    5.23
   2  -1  10    0.33    5.84
   2   1 -10  -51.29   22.71
  -2   1  10   38.81   40.71
   2   1  10    9.19    8.93
  -2  -1  10    4.19    5.26
   2  -1 -10  -22.13   20.42
  -2   1 -10    2.01    3.51
  -2  -1  10   45.59   40.98
   2  -1 -10    1.79    3.69
  -2   1 -10  -11.22   24.69
   2   1  10   30.39   85.52
   2  -1  11    4.41   61.66
   2   1 -11   62.11   34.22
  -2   1  11   55.22   61.27
  -2  -1 -11   26.81   31.92
   2  -1 -11   57.28   32.26
   2   1  11  101.47   65.63
  -2  -1  11   17.79   51.06
  -2   1 -11   66.55   39.91
   3   1   0   73.37   10.40
  -3  -1   0   79.61   10.30
   3   1   0   69.84    8.94
  -3   1   0   74.50   11.12
   3   1   0   73.53   10.89
   3  -1   0   76.48   10.90
  -3  -1   0   70.23   10.96
   3   1  -1 1656.06  197.90
   3  -1   1 1594.44  198.56
   3  -1   1 1654.08  199.45
  -3  -1  -1 1616.49  200.42
  -3  -1  -1 1583.48  198.65
   3   1  -1 1562.02  197.45
  -3   1   1 1745.22  197.90
  -3  -1   1 1662.55  197.79
  -3   1  -1 1492.44  198.56
   3   1   1 1569.94  198.45
  -3  -1   1 1642.14  198.03
  -3   1  -1 1673.79  198.01
   3  -1  -1 1561.28  197.09
  -3   1   2  963.63  113.79
   3  -1   2  917.86  112.93
   3  -1   2 1003.11  117.79
   3   1  -2  932.91  114.77
   3   1  -2  921.21  112.99
  -3   1   2 1045.96  116.38
  -3  -1  -2  921.04  115.45
   3  -1   2  906.66  115.22
  -3  -1  -2  992.34  117.91
  -3   1  -2  926.18  115.81
   3   1   2  907.54  115.11
   3  -1  -2  930.50  113.61
   3   1   2  882.86  113.12
  -3  -1   2  915.85  113.99
  -3  -1   2  883.98  112.85
   3   1   2  936.83  119.97
  -3   1  -2  875.00  115.42
  -3  -1   2  887.75  115.37
   3  -1  -2  939.64  114.93
  -3   1   3 3676.50  466.76
   3  -1   3 3980.83  468.68
  -3  -1  -3 3839.80  465.01
  -3  -1  -3 3891.61  467.85
   3   1  -3 3718.62  465.00
   3   1   3 3700.10  464.53
  -3   1  -3 3838.79  466.42
   3  -1  -3 3699.84  465.34
  -3  -1   3 3852.37  466.36
   3   1   3 3876.10  470.87
  -3  -1  -4  523.57   62.64
   3   1  -4  482.33   66.63
  -3  -1  -4  500.80   65.73
   3   1  -4  509.41   62.79
   3  -1   4  511.54   71.07
   3  -1   4  498.84   62.89
   3  -1   4  466.41   65.25
  -3   1   4  458.49   68.97
  -3  -1  -4  503.45   69.37
  -3   1  -4  519.43   68.40
   3   1   4  521.40   63.12
   3  -1  -4  545.03   62.99
  -3   1  -4  530.02   62.50
   3  -1  -4  523.15   67.50
   3   1   4  471.52   73.35
   3   1   4  473.31   64.94
  -3  -1   4  508.75   62.84
  -3  -1  -5  326.55   38.24
  -3  -1  -5  292.94   46.54
   3   1  -5  329.37   38.44
   3  -1   5  286.84   40.98
   3  -1   5  357.62   51.48
   3  -1   5  287.05   38.49
   3   1  -5  268.79   43.33
   3  -1  -5  312.65   38.50
   3   1   5  351.92   58.19
  -3   1  -5  313.10   38.03
  -3  -1   5  333.47   53.78
  -3   1  -5  316.73   45.63
   3   1   5  268.90   40.46
   3   1   5  287.96   38.63
   3  -1  -5  271.15   43.90
   3   1  -6  146.10   19.51
   3  -1   6  150.65   36.64
  -3   1   6  115.41   31.14
   3  -1   6  147.56   19.79
  -3  -1  -6  160.29   19.46
  -3   1   6  129.44   19.47
   3  -1   6  165.24   22.87
   3   1  -6  214.27   34.45
  -3  -1  -6  108.57   26.78
   3  -1  -6  159.20   19.84
   3   1   6  221.55   45.27
   3   1   6  145.15   19.94
  -3   1  -6  145.41   19.17
  -3  -1   6   87.29   25.26
   3  -1  -6  166.01   29.17
  -3   1  -6  184.44   34.81
  -3  -1   6  135.72   19.58
   3   1   6  151.93   22.13
   3   1  -7  512.31   65.79
  -3  -1  -7  431.45   67.16
  -3   1   7  431.68   56.44
   3  -1   7  489.39   84.77
  -3  -1  -7  457.23   56.03
   3  -1   7  444.39   59.45
  -3   1   7  381.32   72.44
   3   1  -7  494.93   56.43
   3  -1   7  387.43   56.37
   3   1   7  476.15   59.33
  -3   1  -7  503.04   79.37
   3  -1  -7  489.88   56.56
  -3  -1   7  436.26   56.46
   3  -1  -7  452.99   65.48
   3   1   7  413.08   56.67
  -3   1  -7  443.31   55.84
  -3  -1   7  458.68   70.63
   3   1   7  308.10   73.29
   3   1  -8  134.75   31.65
   3   1  -8  115.70   15.44
   3  -1   8  117.10   37.31
  -3  -1  -8   94.76   45.12
   3  -1   8  109.97   15.83
  -3  -1  -8  117.35   15.27
   3  -1   8  152.45   25.41
  -3   1   8   83.62   29.77
   3   1   8  129.50   22.93
   3   1   8  105.78   18.26
  -3  -1   8  103.75   15.49
  -3  -1   8   72.58   30.45
  -3   1  -8  101.88   30.68
   3  -1  -8   92.76   15.08
   3  -1  -8   62.42   21.22
  -3   1  -8  100.00   14.70
   3   1   8  122.75   42.85
   3   1  -9  172.23   23.10
   3   1  -9  153.13   43.76
   3  -1   9   45.13   42.54
  -3  -1  -9  158.83   37.65
  -3  -1  -9  166.84   22.73
  -3   1   9  146.84   43.84
   3  -1   9  185.09   27.16
  -3   1  -9  141.42   36.13
   3   1   9  135.26   56.67
  -3   1  -9  182.22   22.75
   3   1   9  175.79   26.56
   3  -1  -9  154.02   38.73
  -3  -1   9  184.01   23.69
   3  -1  -9  147.13   22.74
  -3  -1   9  147.47   47.09
   3   1 -10   17.85   22.14
  -3  -1 -10   75.29   13.55
  -3  -1 -10   81.43   42.53
   3   1 -10   77.37   14.26
   3  -1  10   98.03   60.90
  -3   1  10   26.29   43.42
   3  -1 -10   40.39   30.42
   3  -1 -10  110.99   15.99
  -3   1 -10   73.05   29.35
   3   1  10    2.77   55.78
  -3  -1  10   79.26   14.95
  -3   1 -10   71.06   13.18
   3   1  10  108.91   22.10
  -3  -1  10   58.68   45.50
  -3   1  11   96.56   83.70
  -3  -1 -11   96.52   14.23
   3   1 -11  148.40   45.78
   3   1 -11   97.05   16.90
  -3  -1 -11   44.40   33.17
  -3   1 -11  107.91   16.77
  -3  -1  11  -30.89   49.15
  -3   1 -11   54.45   36.20
   3  -1 -11   84.43   16.97
   3  -1 -11  158.84   45.83
   4   1   0    1.98    0.68
  -4  -1   0    2.01    3.22
  -4  -1   0   -1.48    2.24
  -4   1   0   10.42    4.66
   4  -1   0    2.93    2.83
   4   1   0    1.46    2.42
  -4  -1  -1    3.37    3.77
   4   1  -1    1.88    3.20
   4  -1   1    6.73    4.30
   4  -1   1    3.18    0.79
  -4  -1  -1  -14.24    6.58
  -4  -1  -1   -1.27    3.84
   4  -1   1    5.79    1.25
  -4   1   1    4.27    3.51
   4   1  -1    4.05    3.18
   4   1  -1    3.82    1.13
   4  -1  -1    2.83    2.60
  -4  -1   1   -0.95    2.63
  -4   1  -1    3.12    4.00
  -4  -1   1    7.05    3.76
   4   1   1    3.30    1.32
  -4   1  -1    2.98    3.27
   4   1   1    5.28    1.70
   4   1   1    1.83    3.30
   4   1  -2    3.63    2.76
  -4  -1  -2    6.54    4.66
   4  -1   2    2.68    1.45
   4   1  -2    1.87    1.25
   4  -1   2    0.89    2.99
   4   1  -2    2.64    3.65
  -4  -1  -2    1.58    0.65
  -4  -1  -2   -5.66    6.65
  -4   1   2    0.20    5.26
   4  -1   2   -1.34    8.90
  -4   1   2    6.86    3.27
   4  -1  -2    4.08    1.57
  -4   1  -2    4.94    4.51
   4   1   2    2.28    3.84
  -4  -1   2    1.42    2.95
  -4   1  -2    5.93    4.86
   4  -1  -2    3.47    2.77
   4  -1  -2    3.48    3.52
  -4  -1   2   -1.76    4.06
   4   1   2    2.63    1.66
  -4  -1  -3    0.41    8.14
  -4  -1  -3   -1.07    3.47
  -4   1   3    3.67    6.88
  -4  -1  -3    3.09    2.23
   4  -1   3    9.41   10.75
  -4  -1  -3    4.85    1.49
   4  -1   3    4.74    2.02
   4  -1   3    6.41    5.08
  -4   1   3    3.35    2.69
   4   1  -3    1.53    4.57
   4   1  -3    4.14    1.80
   4  -1  -3    0.58    4.55
  -4   1  -3   -1.82    2.92
  -4   1  -3    4.37    2.35
  -4   1  -3    1.84    1.08
  -4  -1   3    0.39    5.73
   4  -1  -3    5.52    2.05
   4   1   3    6.70    4.61
   4   1   3    3.14   12.58
  -4   1  -3    8.26    5.97
   4   1   3    3.27    1.97
  -4  -1   3    1.56    2.61
  -4  -1  -4    1.18    4.45
   4   1  -4    2.15    1.77
   4  -1   4   -3.75   13.99
  -4  -1  -4    1.08    1.40
  -4  -1  -4  -21.09    7.67
   4  -1   4    1.59    3.70
   4   1  -4    2.04    6.19
   4  -1   4    1.40    1.78
  -4   1   4    6.91    9.48
  -4   1  -4    3.68    7.20
   4  -1  -4    0.95    1.75
  -4  -1   4   -0.03    1.43
   4   1   4   -1.48    1.58
   4   1   4    0.53   15.40
  -4   1  -4    3.31    1.55
  -4  -1   4   -0.37    2.17
  -4  -1   4   -3.17    7.94
   4   1   4   -0.82    2.98
   4  -1  -4    4.11    6.29
  -4   1   5   -5.03   12.34
   4  -1   5   -1.49   15.49
  -4  -1  -5   -7.03    9.59
   4   1  -5    0.03    1.85
   4  -1   5   -2.07    3.96
  -4  -1  -5    0.54    1.68
   4   1  -5    1.60    7.67
   4  -1   5    2.41    2.26
  -4   1  -5   19.20   10.17
   4   1   5    0.86    3.72
   4   1   5   14.35   19.29
   4  -1  -5    2.60    2.36
   4  -1  -5    3.32    7.76
  -4  -1   5    8.31    2.78
  -4  -1   5    2.41    2.87
  -4  -1   5    1.76   10.65
  -4   1  -5    4.23    1.95
   4   1   5    2.84    2.60
   4  -1   6    9.27   20.73
   4   1  -6   -6.77    7.68
   4  -1   6    3.09    3.28
  -4  -1  -6    6.37    2.92
   4   1  -6   10.22    3.75
  -4  -1  -6  -13.09   12.51
   4  -1   6    3.89    5.11
   4  -1  -6    1.90    2.90
   4   1   6    4.99    6.36
   4   1   6   26.11   24.95
  -4  -1   6   -0.22    2.58
  -4   1  -6    5.15    2.73
   4  -1  -6   11.46    9.35
  -4  -1   6    5.22    3.76
   4   1   6    5.09    3.83
  -4   1  -6   -6.01   11.81
   4  -1   7    6.90    4.27
  -4  -1  -7   23.03   16.67
   4  -1   7   10.45   28.06
   4  -1   7    1.55    5.05
  -4  -1  -7    4.45    2.92
   4   1  -7    6.24    3.52
   4   1  -7    9.63   11.71
  -4   1   7  -43.70   16.99
  -4  -1   7   -4.84   17.41
   4  -1  -7   -0.42    2.58
  -4  -1   7    4.51    3.48
   4  -1  -7   -5.19   12.73
   4   1   7   26.78   31.57
  -4   1  -7    3.48    2.67
  -4   1  -7  -27.33   12.81
   4   1   7    1.75    5.13
   4   1   7    3.49    3.68
  -4  -1  -8   26.64   21.79
   4   1  -8    4.57    3.83
   4  -1   8    1.36   33.99
   4   1  -8  -10.46   11.57
  -4   1   8   11.28   23.64
  -4  -1  -8    2.32    2.89
   4  -1   8    2.19    7.43
   4   1   8    8.96   34.93
   4  -1  -8  -32.88   14.31
   4   1   8    5.86    6.78
  -4  -1   8    3.50    4.15
  -4   1  -8   19.10   17.58
   4  -1  -8    1.90    3.17
  -4  -1   8  -20.80   23.24
  -4   1  -8    3.02    2.91
   4   1  -9  -10.42   18.13
  -4  -1  -9    1.44   22.54
   4   1  -9    3.80    3.88
  -4  -1  -9    8.37    4.58
  -4   1   9   -0.83   32.82
   4  -1   9   20.00   43.16
  -4   1  -9    2.96    3.43
   4   1   9    0.88    7.78
  -4  -1   9   48.13   31.09
   4  -1  -9   -6.94   15.47
  -4   1  -9   -2.73   18.67
   4  -1  -9   13.47    5.75
   4   1   9  -55.80   45.44
   4   1 -10   14.35   21.82
  -4  -1 -10    7.80    4.58
  -4  -1 -10   26.37   31.36
  -4   1  10  -68.47   44.96
   4   1 -10    4.21    4.38
  -4   1 -10   -4.21   26.25
  -4   1 -10   10.05    4.80
   4  -1 -10    4.55    4.24
   4  -1 -10   37.56   28.32
  -4  -1  10  112.47   43.37
   4   1 -11   12.03   29.76
   4   1 -11    5.51    4.90
  -4  -1 -11  -17.76   36.26
  -4  -1 -11   10.15    4.87
  -4   1  11  -15.02   54.48
   4  -1  11   -6.26   70.36
   4  -1 -11   -0.03    3.59
  -4   1 -11    5.14    4.05
  -4  -1  11   57.24   66.00
   4  -1 -11    0.30   27.52
  -4   1 -11   33.30   37.88
   4   1  11   -5.10   75.93
  -5  -1   0  182.80   22.97
   5   1   0  170.74   21.69
   5  -1   0  184.34   24.65
  -5   1   0  179.85   25.25
  -5  -1   0  185.01   25.22
   5   1   0  172.30   24.58
  -5  -1  -1 1254.75  154.22
   5   1  -1 1238.71  153.74
   5  -1   1 1123.69  152.21
  -5  -1  -1 1253.64  156.00
   5   1  -1 1131.72  154.54
  -5  -1  -1 1346.60  156.73
   5  -1   1 1272.81  155.61
  -5   1   1 1344.01  155.31
   5   1  -1 1277.80  152.23
  -5  -1   1 1283.63  153.84
   5  -1  -1 1332.20  154.86
  -5   1  -1 1207.69  155.91
  -5  -1   1 1334.92  155.48
   5   1   1 1241.22  152.45
   5   1   1 1141.33  152.58
  -5   1  -1 1334.09  153.45
   5   1   1 1246.26  155.48
  -5   1   2  347.01   44.24
   5   1  -2  314.70   43.80
   5   1  -2  356.19   41.99
   5  -1   2  342.01   41.96
  -5   1   2  369.85   45.62
   5  -1   2  305.83   45.14
   5   1  -2  330.80   43.70
  -5  -1  -2  336.45   45.97
  -5  -1  -2  422.95   47.14
  -5  -1  -2  352.02   47.46
   5  -1   2  291.31   49.27
   5  -1  -2  345.05   41.96
  -5   1  -2  307.82   45.71
  -5  -1   2  342.33   44.34
  -5  -1   2  361.21   45.03
   5   1   2  343.53   45.39
   5   1   2  337.61   42.23
   5  -1  -2  336.58   43.76
   5  -1  -2  350.87   43.33
  -5   1  -2  309.72   44.74
  -5   1   3  318.56   43.73
  -5   1   3  302.97   39.78
  -5  -1  -3  301.28   44.50
   5   1  -3  310.41   38.23
   5  -1   3  309.58   38.33
   5  -1   3  279.94   41.42
  -5  -1  -3  316.51   42.52
  -5  -1  -3  313.09   37.54
   5   1  -3  332.47   41.08
  -5  -1  -3  309.60   37.67
   5  -1   3  282.11   50.28
   5  -1  -3  297.54   40.65
   5  -1  -3  316.38   39.45
  -5   1  -3  291.05   42.52
   5   1   3  289.18   41.34
  -5  -1   3  343.98   43.38
  -5   1  -3  313.02   42.67
  -5  -1   3  331.61   40.28
   5   1   3  257.47   52.37
   5   1   3  287.53   38.48
   5  -1  -3  302.96   38.26
  -5   1   4  249.83   32.82
   5  -1   4  243.83   35.16
  -5  -1  -4  261.03   31.24
   5   1  -4  247.41   35.48
   5  -1   4  282.04   51.72
  -5  -1  -4  237.10   35.95
   5   1  -4  266.92   31.86
  -5   1   4  256.06   40.35
  -5  -1  -4  319.26   41.27
   5  -1   4  243.87   31.96
  -5  -1   4  261.65   39.16
   5  -1  -4  249.65   31.87
  -5  -1   4  268.68   33.32
   5   1   4  212.62   34.61
  -5   1  -4  286.84   38.71
   5   1   4  253.03   32.18
  -5   1  -4  253.99   31.10
   5  -1  -4  215.91   35.24
   5   1   4  165.64   45.64
  -5   1   5 1020.71  127.35
   5  -1   5  949.59  121.24
   5  -1   5  885.01  131.13
  -5  -1  -5 1006.44  116.60
   5  -1   5  907.81  117.36
   5   1  -5  946.20  121.64
  -5  -1  -5 1020.53  126.00
   5   1  -5  992.71  117.18
  -5  -1   5  993.03  125.58
   5   1   5  863.38  117.45
  -5   1  -5  900.80  123.68
   5  -1  -5  929.92  121.73
   5   1   5  876.74  133.28
   5  -1  -5  983.94  117.27
  -5   1  -5  984.21  116.45
  -5  -1   5  967.76  118.12
   5   1   5  894.04  120.67
  -5   1   6  292.74   50.31
   5  -1   6  207.86   32.20
   5  -1   6  210.56   28.69
   5   1  -6  205.08   28.26
   5   1  -6  263.50   39.85
  -5  -1  -6  220.20   27.80
  -5  -1  -6  200.85   41.39
   5  -1   6  191.30   47.99
   5   1   6  174.38   51.62
   5   1   6  198.91   28.70
  -5   1  -6  222.14   27.70
  -5   1  -6  199.66   38.94
  -5  -1   6  216.56   28.87
   5   1   6  243.48   32.97
  -5  -1   6  295.19   48.90
   5  -1  -6  227.54   28.58
   5  -1  -6  276.18   42.22
   5   1  -7  329.00   47.32
  -5  -1  -7  265.81   46.23
   5   1  -7  250.94   31.52
   5  -1   7  247.10   35.58
  -5  -1  -7  239.24   30.83
  -5   1   7  283.80   54.36
   5  -1   7  127.06   50.81
   5  -1   7  251.78   32.15
   5   1   7  236.98   35.68
   5  -1  -7  247.46   31.60
   5   1   7  206.31   62.06
  -5  -1   7  280.76   54.94
   5  -1  -7  292.96   45.98
  -5   1  -7  146.62   41.11
  -5   1  -7  234.12   30.66
   5   1   7  232.67   32.01
  -5  -1  -8   45.60   26.11
   5   1  -8   85.74   13.09
   5  -1   8   89.80   42.53
   5   1  -8   72.54   22.40
  -5  -1  -8   93.52   12.57
   5   1   8  135.84   54.79
  -5   1  -8   49.46   26.79
   5  -1  -8  105.50   13.72
  -5   1  -8   87.39   12.34
   5  -1  -8   52.21   20.87
   5   1  -9  105.05   33.32
  -5  -1  -9  149.24   19.32
  -5   1   9  133.02   49.61
  -5  -1  -9  136.83   44.23
   5   1  -9  140.22   19.86
   5  -1  -9   90.46   31.56
  -5   1  -9  137.84   19.07
  -5   1  -9  128.22   39.11
  -5  -1   9  119.87   42.16
   5  -1  -9  154.47   20.31
  -5   1  10  -53.95   45.91
   5  -1  10  -32.29   61.03
   5   1 -10   14.56   24.86
  -5  -1 -10   60.36   34.02
  -5   1 -10   32.00   31.77
   5  -1 -10   45.42    9.16
  -5  -1  10   11.78   42.07
   5   1  10   29.14   60.80
   5  -1 -10   16.13   21.53
   6   1   0    0.68    0.84
   6  -1   0    2.18    3.07
  -6  -1   0    5.02    5.17
   6   1   0    0.29    3.01
  -6   1   0    4.15    4.52
  -6   1   1   -0.15    3.41
   6  -1   1    5.32    4.60
  -6  -1  -1   -2.07    3.85
   6  -1   1    3.81    1.07
   6   1  -1    6.90    4.14
   6   1  -1    1.13    0.91
   6  -1   1    0.80    0.79
  -6  -1  -1   -7.24    7.25
  -6  -1  -1    2.70    4.08
   6   1  -1    4.16    4.12
   6   1   1   -0.21    3.61
  -6  -1   1    3.06    4.56
  -6  -1   1    0.96    3.96
  -6   1  -1   15.46    7.01
   6   1   1    1.70    1.39
   6   1   1    3.77    1.74
   6  -1  -1    1.41    2.53
   6   1  -2    5.66    5.31
  -6  -1  -2    9.63    7.65
   6  -1   2    0.85    1.34
  -6  -1  -2    4.24    4.97
  -6   1   2    4.73    4.86
   6   1  -2    5.49    1.60
   6   1  -2    4.09    2.93
   6  -1   2    0.78    3.55
  -6   1   2   18.74    7.98
  -6  -1  -2   23.01   10.31
  -6  -1   2    3.17    3.83
  -6   1  -2    1.91    4.25
  -6   1  -2    9.59    6.24
   6   1   2    2.99    1.83
   6  -1  -2    4.78    3.15
   6  -1  -2    0.83    1.27
  -6   1  -2   -5.07    5.93
   6   1   2    5.90    5.05
   6  -1  -2   -3.41    3.63
  -6  -1   2   -4.91    5.61
  -6  -1  -3    2.79    5.60
   6   1  -3    3.03    1.67
  -6  -1  -3  -10.58    9.08
  -6   1   3    5.44    4.44
   6  -1   3   21.82   18.17
  -6   1   3    8.49   11.04
   6  -1   3    0.80    1.66
   6  -1   3    7.03    4.99
   6   1  -3    0.56    5.77
  -6   1  -3   -0.06    4.43
   6  -1  -3    0.11    1.37
  -6  -1   3   -0.93    7.63
   6   1   3   -0.40    1.59
   6  -1  -3    1.99    2.89
  -6   1  -3   -8.18    7.20
  -6  -1   3   -0.99    2.86
   6  -1  -3    7.30    5.67
   6   1   3    2.53    4.35
   6  -1   4   -5.12   18.77
   6  -1   4   13.61    8.08
  -6   1   4  -18.48   11.65
   6  -1   4    4.32    2.73
  -6  -1  -4   14.39    9.27
   6   1  -4    7.21    7.36
  -6   1   4    0.96    3.41
   6   1  -4    3.42    2.19
  -6  -1  -4    8.04   11.07
   6   1   4   18.77   22.11
   6   1   4    5.39    3.01
  -6  -1   4    2.53    9.60
   6  -1  -4    3.29    2.29
  -6   1  -4  -10.25    8.68
  -6  -1   4    9.09    5.08
   6   1   4    1.42    4.97
   6  -1  -4    0.35    6.24
   6  -1   5    4.63    6.47
   6  -1   5    4.13    2.99
   6   1  -5    3.53    2.59
  -6   1   5  -15.35   13.88
  -6   1   5    0.43    3.31
  -6  -1  -5    4.33    1.91
  -6  -1  -5   -3.93   13.13
   6  -1   5  -22.44   21.68
   6   1  -5    1.52    7.85
   6  -1  -5   11.68    3.63
   6  -1  -5   -8.41    8.46
  -6   1  -5    1.12    1.47
   6   1   5  -11.40   25.02
   6   1   5    8.70    7.48
   6   1   5    9.05    4.06
  -6   1  -5   -1.61   11.29
  -6  -1   5   -0.21    3.52
  -6  -1   5    6.90   13.45
  -6   1  -5   11.10    2.67
  -6  -1  -6   14.32   16.16
  -6  -1  -6   13.12    4.73
   6   1  -6    1.10   12.18
  -6   1   6  -16.57   19.53
  -6  -1  -6    6.41    2.60
   6  -1   6    0.46    6.46
   6  -1   6    8.36    4.69
   6  -1   6   11.43   33.07
   6   1  -6    6.13    3.62
  -6  -1   6    8.10   16.95
  -6   1  -6   -3.46   13.67
   6   1   6   11.81   31.11
   6  -1  -6   -8.54    9.87
   6  -1  -6   10.60    4.20
   6   1   6   26.94    8.99
  -6   1  -6   18.22    5.01
  -6  -1   6    3.81    4.42
   6   1   6    9.76    5.28
  -6   1  -6    1.90    2.21
   6  -1   7    4.11    4.61
  -6  -1  -7   13.70   19.50
  -6  -1  -7   12.91    5.80
   6   1  -7    1.35   14.07
  -6  -1  -7    6.84    3.06
   6   1  -7    4.38    3.68
  -6   1   7  -20.78   23.42
   6  -1   7   73.55   39.65
  -6   1  -7    4.67   16.31
  -6   1  -7   11.93    5.29
  -6   1  -7    6.64    3.11
   6  -1  -7   21.11   13.90
   6   1   7  -13.00   37.09
   6   1   7    2.76    4.35
   6  -1  -7    0.66    3.34
  -6  -1   7    2.74   21.73
  -6  -1  -8   -8.12   23.18
   6   1  -8   -0.46   13.95
  -6  -1  -8    4.38    3.19
  -6   1   8   -8.76   27.31
  -6  -1  -8    0.98    4.58
   6   1  -8    1.02    3.28
   6  -1  -8    0.83    3.32
  -6   1  -8    5.97    3.05
  -6  -1   8   -3.22   27.72
   6  -1  -8    5.30   16.13
  -6   1  -8   -8.51   18.52
   6   1  -9    5.17    3.85
   6   1  -9   19.51   20.46
  -6  -1  -9    1.73    2.95
  -6  -1  -9   -9.72   27.24
   6  -1   9   28.02   57.47
  -6   1   9  -61.91   37.00
  -6   1  -9   -2.22   23.59
  -6  -1   9  -24.16   36.30
   6   1   9   12.16   60.49
  -6   1  -9    1.95    2.84
   6  -1  -9  -23.78   17.15
   6  -1  -9    2.24    3.70
  -6  -1 -10    6.49    3.91
  -6  -1 -10  -23.82   31.54
   6   1 -10    8.71    4.91
   6   1 -10  -35.32   19.75
   6  -1  10  121.52   72.83
   6   1  10    6.86   73.84
  -6   1 -10  -75.09   29.82
  -6   1 -10    4.80    3.69
   6  -1 -10   -7.40   21.83
   6  -1 -10    1.57    4.15
   7   1   0   46.41    6.47
  -7  -1   0   74.57   15.35
  -7   1   0   51.05   12.36
   7   1   0   58.33   11.88
   7  -1   0   51.41   13.08
   7   1  -1  239.12   32.60
  -7  -1  -1  247.68   34.73
  -7  -1  -1  275.04   33.09
   7  -1   1  229.13   33.23
   7  -1   1  249.34   28.91
   7   1  -1  230.04   28.86
  -7   1   1  224.61   33.17
   7   1   1  197.72   29.39
   7   1   1  247.19   33.45
   7  -1  -1  225.01   32.16
  -7  -1   1  244.33   33.61
   7  -1  -1  233.55   28.70
  -7   1  -1  243.09   34.41
  -7  -1  -2  199.92   30.00
  -7  -1  -2  167.86   27.94
  -7  -1  -2  188.74   29.71
   7  -1   2  200.64   28.90
   7   1  -2  208.02   27.20
  -7   1   2  214.88   28.57
   7  -1   2  191.61   24.44
   7   1  -2  214.50   24.35
   7   1  -2  193.77   27.23
  -7  -1   2  197.52   28.20
   7   1   2  166.78   24.62
  -7   1  -2  163.03   29.33
  -7  -1   2  185.09   28.24
  -7   1  -2  226.68   27.36
   7  -1  -2  191.52   27.07
   7  -1  -2  200.58   24.26
  -7   1  -2  172.53   27.08
   7   1   2  213.58   29.03
   7   1  -3  458.29   55.87
  -7  -1  -3  416.94   61.42
  -7   1   3  497.61   62.99
  -7  -1  -3  570.85   63.68
   7  -1   3  442.34   56.12
  -7  -1  -3  463.08   62.09
   7   1  -3  440.97   58.39
   7   1  -3  462.38   58.78
  -7   1   3  482.84   59.24
   7  -1  -3  482.56   58.05
  -7   1  -3  430.59   61.84
   7  -1  -3  453.91   55.88
   7   1   3  441.44   60.54
   7   1   3  422.33   56.31
   7  -1  -3  439.87   58.01
  -7  -1   3  480.66   61.45
  -7   1  -3  380.59   59.21
  -7  -1   3  461.84   59.30
  -7  -1  -4  125.50   25.94
  -7   1   4  130.42   28.63
   7   1  -4  138.10   21.90
   7  -1   4  145.46   27.04
   7   1  -4  105.12   15.45
  -7   1   4  120.02   18.03
   7  -1   4  129.96   16.00
  -7  -1  -4  154.68   26.66
  -7  -1   4  109.99   18.10
  -7  -1   4  135.45   26.97
   7   1   4  170.84   29.06
   7   1   4  104.95   15.96
   7  -1  -4  122.40   21.09
   7  -1  -4  108.34   15.55
  -7   1  -4  136.28   24.13
   7   1  -5  233.80   31.52
  -7   1   5  292.09   49.63
  -7   1   5  239.15   33.28
   7   1  -5  276.86   37.59
  -7  -1  -5  269.91   43.62
   7  -1   5  248.35   32.15
   7   1   5  249.07   32.28
   7  -1  -5  240.18   31.64
   7  -1  -5  250.12   36.99
   7   1   5  255.69   39.58
  -7  -1   5  238.70   33.62
  -7   1  -5  273.59   40.18
  -7  -1   5  277.69   46.77
  -7   1   6  196.55   27.84
   7  -1   6  225.97   27.67
  -7   1   6  174.16   42.69
  -7  -1  -6  204.13   25.62
   7   1  -6  251.75   35.55
  -7  -1  -6  204.45   41.10
   7   1  -6  208.99   26.95
  -7  -1  -6  207.17   26.32
  -7   1  -6  204.73   25.38
  -7  -1   6  295.70   47.63
   7  -1  -6  201.78   26.93
  -7   1  -6  190.37   25.95
   7   1   6  232.21   27.93
  -7  -1   6  208.89   28.58
   7  -1  -6  215.31   35.64
   7   1   6   68.52   59.49
  -7   1  -6  168.04   36.15
   7   1  -7  269.76   42.45
   7  -1   7  209.72   29.07
  -7  -1  -7  206.28   28.66
   7   1  -7  259.40   28.57
   7  -1   7  103.46   54.93
  -7   1   7  274.07   58.67
  -7  -1  -7  213.84   26.97
  -7  -1  -7  216.25   44.78
   7   1   7  115.16   67.01
   7  -1  -7  209.74   28.29
  -7   1  -7  230.75   43.50
  -7  -1   7  224.30   29.26
  -7   1  -7  220.01   26.91
   7  -1  -7  189.19   36.46
  -7  -1   7  190.62   49.09
  -7   1  -7  177.47   27.97
   7  -1   8   70.65   53.27
   7   1  -8    8.46   16.31
  -7  -1  -8   15.68   25.56
  -7  -1  -8   37.13    6.36
  -7   1   8  -13.74   33.26
  -7  -1  -8   22.96    9.04
   7   1  -8   43.09    8.75
   7  -1  -8   34.82   19.46
  -7   1  -8   26.01    8.64
   7  -1  -8   46.67    8.68
  -7  -1   8   47.16   34.42
   7   1   8  -56.23   51.76
  -7   1  -8   12.06   22.14
  -7   1  -8   32.62    6.01
   7   1  -9   91.80   13.62
  -7  -1  -9   92.19   38.77
   7   1  -9   78.75   29.06
  -7  -1  -9   68.71    9.74
   7  -1   9  180.38   77.20
  -7   1   9  -57.88   46.93
  -7  -1  -9   51.45   14.56
  -7   1  -9   59.63    9.55
  -7   1  -9   70.50   34.80
   7   1   9  -21.73   64.69
   7  -1  -9   72.10   12.99
   7  -1  -9   57.31   24.16
  -7  -1   9   18.95   42.64
   8  -1   0    9.34    6.37
   8   1   0    2.81    1.71
  -8   1   0    8.26    5.79
  -8  -1   0    6.68    7.87
   8   1   0    6.77    5.70
  -8  -1  -1    9.53    6.39
   8   1  -1    2.64    1.41
   8   1  -1    2.35    5.46
   8  -1   1    4.76    1.85
   8  -1   1    1.50    1.56
  -8   1   1    4.65    5.67
   8  -1   1   -0.82    4.55
   8   1   1   -0.63    4.91
  -8  -1   1   10.82    6.66
   8  -1  -1    1.53    1.01
   8   1   1    7.00    2.26
   8  -1  -1   10.58    4.99
  -8   1  -1    8.94    7.41
  -8  -1  -2   21.00   10.28
   8   1  -2    3.70    1.86
   8  -1   2    6.10    2.56
  -8   1   2    9.46    6.46
   8  -1   2    4.63    6.22
  -8  -1  -2   -3.34    6.16
   8   1  -2    7.72    5.74
  -8  -1  -2    6.50    9.09
   8  -1  -2    5.28    4.88
   8  -1  -2    5.92    1.96
  -8  -1   2    3.25    6.04
  -8   1  -2   13.02    8.90
   8   1   2    9.03    7.24
   8  -1   3    2.22    2.25
   8  -1   3   12.23    5.78
   8   1  -3    1.28    1.77
  -8  -1  -3    6.50    7.73
   8   1  -3    1.01    4.02
   8   1  -3    1.86    8.23
  -8   1   3    3.11    5.23
  -8  -1  -3  -18.41    9.56
  -8  -1  -3    2.85    9.91
   8   1   3   -1.06    2.08
   8  -1  -3   -1.13    3.34
  -8  -1   3   -6.24   11.97
   8  -1  -3    0.76    1.68
  -8   1  -3    8.90    8.44
  -8  -1   3   -0.90    4.32
  -8   1  -3  -13.00    9.36
   8   1   3    1.57    4.81
  -8   1  -3   -6.30    4.15
  -8  -1  -4   21.80   16.93
  -8   1   4    2.54    5.04
   8   1  -4   -1.24    1.82
  -8  -1  -4  -20.78   12.31
   8  -1   4   12.59    4.00
  -8   1   4   30.17   18.82
  -8  -1  -4   -8.93    4.13
   8   1  -4   -4.44    9.09
   8  -1  -4   -0.38    1.84
   8  -1  -4    2.24    8.50
  -8  -1   4   18.99   15.86
  -8  -1   4    8.64    6.03
  -8   1  -4  -10.39    9.96
  -8   1  -4    3.39   14.82
   8   1   4    2.47    3.17
  -8  -1  -5  -11.14   15.33
   8   1  -5    3.47    2.60
  -8   1   5   10.26    5.61
  -8   1   5   13.15   22.40
  -8  -1  -5   18.00   19.43
   8  -1   5    4.05    3.60
   8   1  -5    6.46   10.89
  -8  -1   5   -1.11    3.44
  -8  -1   5   20.79   20.05
   8  -1  -5    6.68   10.14
   8  -1  -5    4.28    2.95
  -8   1  -5   -7.11   12.68
   8   1   5   -1.28    2.91
  -8   1   6   -3.64   26.38
   8  -1   6   -0.54    3.70
  -8  -1  -6   -4.71   19.06
   8   1  -6   -1.35    2.14
   8   1  -6   16.95   13.92
  -8   1   6    4.17    4.81
   8   1   6   -0.97    3.69
   8  -1  -6    0.35    2.63
  -8  -1   6    1.42    4.93
  -8  -1   6   18.82   24.64
  -8   1  -6  -11.21   14.95
   8  -1  -6   10.21   13.04
   8  -1   7   28.60   50.53
  -8   1   7    2.88    4.22
  -8   1   7  -12.40   30.30
   8   1  -7    0.00    2.54
  -8  -1  -7   -8.29   21.18
   8   1  -7  -27.69   15.93
  -8  -1   7   -3.76    2.73
  -8  -1   7  -54.96   27.68
   8  -1  -7    2.59    3.27
  -8   1  -7   -8.83   18.42
   8  -1  -7    7.63   15.40
  -8  -1  -8    0.39    1.51
   8   1  -8  -37.94   17.64
   8   1  -8    2.41    3.45
  -8   1   8   24.13   40.46
  -8  -1  -8    0.54    1.84
   8  -1   8  -22.77   55.23
  -8  -1  -8   60.20   31.32
  -8  -1   8    7.21    5.43
  -8  -1   8   -2.40   35.21
   8   1   8   40.09   61.74
   8  -1  -8   24.49   21.76
  -8   1  -8    8.01   24.96
   8  -1  -8    2.59    3.81
   9   1   0   84.07   18.90
   9   1   0  103.56   12.55
   9  -1   0   86.05   11.93
  -9  -1   0  141.17   26.45
  -9   1   0   95.23   21.23
   9  -1   0  114.53   23.81
  -9  -1  -1  191.20   34.21
  -9   1   1  207.42   33.63
   9   1  -1  157.54   25.12
   9  -1   1  179.35   26.45
   9   1  -1  157.62   20.71
   9  -1  -1  168.66   25.32
   9   1   1  158.83   29.80
  -9   1  -1  165.30   31.71
  -9  -1   1  193.26   27.57
   9  -1  -1  161.59   20.43
  -9   1   2   93.01   18.00
   9  -1   2   67.22    9.02
   9   1  -2   59.22    8.46
   9   1  -2   90.40   17.72
  -9  -1  -2   97.11   21.75
  -9   1  -2   82.21   22.26
   9  -1  -2   77.04   17.15
  -9  -1   2   87.13   18.58
   9  -1  -2   55.93    8.29
   9  -1   3  186.39   23.68
  -9  -1  -3  189.34   29.09
  -9  -1  -3  205.94   37.99
  -9   1   3  160.50   30.72
  -9  -1  -3  193.65   29.43
   9   1  -3  190.09   26.77
   9   1  -3  173.01   23.03
   9  -1  -3  202.03   26.76
   9  -1  -3  169.50   22.96
  -9  -1   3  203.39   28.47
  -9  -1  -4  114.22   26.08
  -9  -1  -4  188.40   32.59
   9  -1   4  141.91   18.12
   9   1  -4  120.83   17.25
   9   1  -4  113.55   24.57
  -9  -1  -4  183.00   32.96
  -9   1   4  134.68   21.39
  -9   1   4  182.96   34.11
   9  -1  -4  135.43   17.33
  -9   1  -4  130.73   27.62
   9   1   4  122.38   18.08
  -9   1  -4  117.88   24.03
  -9  -1   4  132.11   21.29
  -9  -1   4  158.28   31.42
  -9   1   5  165.81   23.49
   9  -1   5  153.98   20.91
  -9  -1  -5  137.65   36.72
  -9  -1  -5  189.50   33.20
  -9   1   5  104.83   37.70
   9   1  -5  155.11   27.96
   9   1  -5  158.98   20.03
   9  -1  -5  137.44   19.90
  -9   1  -5  176.77   38.40
  -9  -1   5  146.19   37.33
   9   1   5  154.40   20.97
   9  -1  -5  183.19   28.53
  -9   1  -5  102.49   28.12
  -9  -1   5  148.70   23.46
  -9   1   6   33.33   10.26
  -9  -1  -6   32.53   21.15
   9   1  -6   19.45   17.25
  -9   1   6   26.21   34.12
   9  -1   6   21.80    7.26
   9   1  -6   25.73    6.06
  -9  -1  -6   21.75   26.50
   9  -1  -6   39.84   17.15
  -9  -1   6   -5.08   29.31
  -9  -1   6   23.89    9.42
   9   1   6   10.19    6.35
   9  -1  -6   38.57    6.74
  -9   1  -6   15.78   18.72
  -9   1   7   68.89   45.20
  -9  -1  -7   88.49   29.48
   9   1  -7   51.71   23.99
  -9   1   7   92.97   17.94
   9   1  -7   79.85   11.72
   9  -1  -7   77.09   11.86
   9  -1  -7   76.77   23.66
  -9  -1   7   71.82   40.75
  -9  -1   7   85.83   17.17
  10   1   0   13.91    3.21
 -10   1   0   10.98    7.96
  10  -1   0    6.79    1.97
 -10  -1   0   11.40    8.93
  10   1  -1    2.73    1.59
 -10   1   1    1.12    6.32
 -10  -1  -1    5.71    7.86
  10  -1  -1    1.43    1.35
 -10  -1   1   -1.61    6.23
  10   1   1    3.58    2.67
 -10   1  -1   14.06    7.72
  10   1  -2   -1.32    3.88
 -10   1   2   -0.79    5.89
  10   1  -2    3.70    2.00
 -10  -1  -2   17.49   12.02
 -10   1  -2    1.90    5.83
  10  -1  -2    2.66    1.60
 -10  -1   2    1.87    6.62
  10  -1  -2    5.96    4.83
  10   1  -3    2.01    2.15
 -10   1   3    9.47    8.06
  10  -1   3   -0.82    2.82
  10   1  -3    7.26    5.29
 -10  -1  -3   10.18    9.92
 -10  -1   3   -0.81    5.71
  10  -1  -3   -4.72    4.73
  10  -1  -3    0.20    1.76
 -10  -1  -4   -5.05   13.32
 -10  -1  -4   38.09   15.26
  10   1  -4    3.45    2.59
  10  -1   4    2.60    3.99
 -10   1   4   -2.78    5.32
 -10  -1  -4   -6.01   15.04
 -10   1  -4   -5.55    9.80
  10  -1  -4    2.67    2.50
 -10   1  -4    5.42   12.64
 -10  -1   4   11.26    6.89
  10   1  -5   -1.34   19.04
  10  -1   5   -0.21    3.92
  10   1  -5    1.62    2.54
 -10   1   5    3.54    5.60
 -10  -1  -5  -29.99   17.26
 -10  -1  -5  -25.87   22.31
 -10   1   5  -11.66   31.21
 -10   1  -5   22.72   21.80
 -10  -1   5    3.67    6.92
  10  -1  -5    5.85    2.81
 -10   1  -5   -9.86   14.49
 -10  -1   5   11.10   30.70
 -10  -1  -6   -3.87   31.00
  10   1  -6   12.26   19.30
  10   1  -6    0.51    2.67
 -10  -1  -6  -11.58   24.71
 -10   1   6    8.83    7.52
 -10   1   6  -43.46   39.75
 -10  -1   6    3.45   37.62
 -10  -1   6    1.32    5.74
  10  -1  -6   14.16   17.87
 -10   1  -6  -21.30   20.25
 -10   1  -6  -29.19   28.11
  10  -1  -6    4.57    3.54
 -11   1   0   78.02   22.69
  11  -1   0   54.00    9.25
  11   1   0   45.78    9.68
 -11  -1   0   69.50   17.98
 -11   1   1  160.33   30.70
 -11  -1  -1  137.40   30.55
  11   1  -1   98.00   13.05
 -11  -1   1  117.74   27.23
  11   1   1   71.29   14.92
 -11   1  -1   92.79   25.05
  11  -1  -1   95.09   12.51
 -11   1   2   56.99   16.70
 -11  -1  -2   62.67   21.68
  11   1  -2   57.62    7.83
 -11  -1   2   54.49   17.06
  11  -1  -2   51.41    7.42
 -11   1   3  131.15   26.24
  11   1  -3   90.13   12.19
 -11  -1  -3   85.20   23.70
 -11  -1   3  129.76   26.06
  11  -1  -3   84.89   12.00
 -11   1   4   42.55   14.37
  11   1  -4   32.41    6.17
  11  -1  -4   30.76    5.97
 -11  -1   4   30.65   12.50
   0  -2  -1 1860.61  213.60
   0   2  -1 1720.68  210.93
   0   2   1 1604.11  213.29
   0  -2  -2   58.44    7.49
   0   2  -2   56.17    7.16
   0  -2  -2   73.84   14.73
   0   2  -2   56.74   10.83
   0  -2   2   53.76    7.21
   0   2   2   48.30    7.43
   0   2   2   54.23    7.45
   0   2   2  101.04   17.97
   0  -2   2   73.22   13.00
   0  -2  -2   48.85    7.52
   0   2   3   35.47    6.67
   0  -2   3   31.21    9.41
   0  -2  -3   46.67    6.96
   0   2  -3   31.48    8.71
   0  -2  -3   47.80   12.41
   0   2  -3   34.11    5.88
   0  -2   3   38.01    6.23
   0   2   3   34.38   13.87
   0   2   3   42.32    6.87
   0  -2   4 2639.08  338.37
   0   2   4 2776.62  341.40
   0  -2  -4 2860.39  339.37
   0   2  -4 2674.61  337.27
   0   2   5  126.62   29.61
   0   2   5  161.96   21.89
   0  -2   5  300.53   49.15
   0   2  -5  161.77   21.02
   0   2  -5  214.07   38.34
   0  -2  -5  144.25   29.17
   0  -2   5  160.91   21.29
   0  -2  -5  180.67   21.53
   0   2   5  145.67   21.36
   0   2   6  535.05   67.78
   0  -2   6  531.25   77.41
   0   2  -6  589.32   75.25
   0  -2   6  525.93   67.54
   0   2   6  684.71   84.10
   0  -2  -6  553.61   67.55
   0   2  -6  542.06   67.18
   0  -2  -6  536.46   76.24
   0   2   6  499.49   67.99
   0   2  -7   97.61   24.72
   0  -2   7  124.36   15.46
   0   2   7   93.88   15.05
   0   2  -7  122.15   14.90
   0  -2  -7  102.33   14.91
   0   2   7  100.83   15.60
   0   2   7  197.31   50.52
   0  -2  -7   59.41   20.80
   0  -2   7   75.61   28.83
   0  -2   8  174.93   24.53
   0  -2   8  138.96   43.14
   0   2  -8  181.49   24.10
   0   2   8  158.97   24.41
   0   2   8  204.63   25.59
   0  -2   8  183.66   26.53
   0  -2  -8  217.52   38.90
   0   2  -8  151.02   33.31
   0  -2  -8  186.93   24.39
   0   2   8  152.24   44.42
   0  -2  -9  109.64   16.61
   0  -2   9  152.20   24.59
   0   2   9  139.40   18.54
   0   2  -9  125.00   38.90
   0  -2   9   65.58   50.92
   0  -2  -9  160.43   45.24
   0   2   9  232.44   72.60
   0   2  -9   92.64   16.00
   0   2  10   73.70   50.94
   0   2 -10  151.90   38.87
   0  -2  10   93.73   41.83
   0  -2 -10  128.08   20.75
   0  -2 -10  196.76   44.16
   0   2  10  176.29   23.29
   0   2 -10  150.17   20.77
   0  -2  10  157.05   24.10
   0   2 -11   36.93   28.34
   0  -2  11  -28.63   53.86
   0   2  11   84.30  112.06
   0  -2  11   24.64   12.86
   0   2  11   54.73   12.98
   0   2 -11   34.85    8.80
   0  -2 -11   58.80   27.46
   0  -2 -11   44.15    9.50
  -1   2   0    5.87    1.62
   1  -2   0    1.14    1.15
  -1  -2   0    3.12    0.89
   1   2   0    8.17    2.20
  -1  -2   0    2.81    1.33
   1   2   0    2.74    1.57
   1   2   0    6.52    1.15
  -1  -2  -1    1.49    1.50
   1  -2   1    1.81    1.72
   1  -2   1   -0.17    0.50
   1   2  -1    0.17    1.18
  -1   2   1   -0.81    3.83
   1   2  -1    0.28    0.56
  -1  -2  -1   -1.17    4.31
  -1  -2  -1    1.08    0.92
  -1  -2  -1    0.08    1.63
  -1   2  -1    0.55    0.55
   1   2   1    1.93    1.49
   1   2   1   -2.98    4.07
   1  -2  -1   -1.91    3.18
  -1  -2   1    0.04    0.57
  -1   2  -1    0.31    1.30
  -1  -2  -2   -3.29    5.01
   1  -2   2    1.62    1.03
   1  -2   2   -1.11    2.92
   1   2  -2   -1.40    2.09
   1   2  -2    1.34    1.03
  -1  -2  -2    0.14    1.08
  -1  -2  -2   -0.85    1.53
  -1   2  -2    0.35    0.84
  -1  -2   2    9.62    4.89
  -1   2  -2    4.92    3.66
   1   2   2   10.87    6.51
   1   2   2    3.10    2.22
   1  -2  -2   -7.80    3.20
   1  -2  -2    3.08    1.56
   1   2   2   -1.27    1.09
  -1  -2   2    0.07    0.90
  -1   2   3    2.81    8.48
   1   2  -3    2.06    3.72
  -1   2   3   -1.95    1.10
  -1  -2  -3   -4.74    5.48
  -1  -2  -3   -2.91    1.86
  -1  -2  -3    1.31    1.59
   1   2  -3    1.40    1.30
   1  -2   3   -6.69    4.16
   1  -2   3    0.84    1.25
  -1   2  -3   -0.23    1.05
  -1  -2   3    1.29    1.56
   1  -2  -3    0.87    1.51
  -1   2  -3    4.79    4.45
  -1  -2   3   -1.05    4.02
   1  -2  -3   -3.67    3.41
   1   2   3    1.69    2.35
   1   2   3    0.26    1.47
   1   2   3   -9.05    7.61
  -1  -2  -4   -0.97    1.76
  -1  -2  -4    0.16    9.02
   1   2  -4    2.27    5.67
   1  -2   4   -5.77   10.13
   1   2  -4    0.16    1.63
  -1   2   4   -3.12    8.37
   1  -2   4    5.21    2.43
  -1   2   4    4.73    2.28
   1   2   4    2.79    2.26
   1  -2  -4    3.16    8.30
  -1  -2   4    6.50    5.57
   1   2   4   -1.13    9.47
  -1   2  -4    2.68    1.91
   1   2   4    3.26    3.12
  -1   2  -4    5.40    8.62
   1  -2  -4    5.93    2.63
  -1  -2   4    3.76    2.22
   1  -2   5   10.09    8.02
   1   2  -5    2.37    2.15
  -1  -2  -5    2.87    2.38
  -1   2   5    4.81   22.08
   1  -2   5    1.12    2.16
   1   2  -5  -16.03   11.84
  -1   2   5    2.19    2.63
  -1  -2  -5   44.31   23.18
  -1   2   5   -0.71    1.80
  -1  -2   5    0.97    8.42
   1  -2  -5    0.04    2.21
   1   2   5    3.41    2.89
   1   2   5    2.57   17.53
  -1   2  -5    6.16    7.01
   1  -2  -5    4.53    7.55
  -1  -2   5    1.64    2.35
  -1   2  -5    1.97    2.18
   1   2   5    3.84    3.66
  -1  -2  -6    4.83    2.83
   1  -2   6    0.62    2.01
   1  -2   6  -27.72   25.50
  -1   2   6   -1.42    2.10
   1   2  -6    8.67    8.60
  -1  -2  -6   20.23   11.42
   1   2  -6    0.53    1.95
  -1   2   6    3.97    2.97
   1   2   6   -1.26    2.74
  -1  -2   6   -3.38   10.70
  -1   2  -6    1.46    2.11
  -1  -2   6   -0.51    2.11
   1  -2  -6    4.33    2.91
   1   2   6   -1.45    2.09
  -1   2  -6    2.94    8.40
   1  -2  -6  -11.94    9.20
   1   2   6    7.95   20.55
   1   2  -7    2.09    2.81
  -1   2   7    7.47   18.53
   1   2  -7   19.64   13.19
  -1   2   7    4.20    3.56
   1  -2   7   -0.51    4.25
   1  -2   7   13.46   16.26
  -1  -2  -7    1.78    2.90
  -1  -2  -7    2.09   15.21
   1  -2   7   -1.15    2.14
  -1   2   7    3.21    3.35
  -1  -2   7  -10.96   12.60
   1  -2  -7   19.00   12.98
  -1   2  -7    6.98   11.16
   1  -2  -7    5.27    3.50
  -1   2  -7   -0.66    2.27
   1   2   7    3.71    4.42
   1   2   7    3.25    3.36
   1   2   7   28.13   27.20
  -1  -2   7    5.22    3.70
   1  -2   8   -2.19    4.49
   1   2  -8   10.65    4.15
  -1  -2  -8  -10.61   19.85
  -1   2   8   -0.30    3.26
  -1  -2  -8    5.89    3.63
  -1   2   8    3.16    4.06
   1  -2   8   -0.85    2.50
   1   2  -8    7.91   12.67
  -1   2   8    8.08   24.73
   1  -2   8  -23.71   31.64
   1   2   8   50.65   42.24
   1  -2  -8   20.83   16.06
  -1  -2   8    2.24   19.61
   1  -2  -8   -2.11    2.38
  -1   2  -8   -5.19   16.46
  -1   2  -8    3.74    3.33
   1   2   8   -1.76    2.89
  -1  -2   8    4.17    4.39
   1   2   8   -0.56    4.03
  -1  -2  -9    5.82    4.33
   1   2  -9    3.03    3.30
  -1   2   9  -13.05   44.60
   1  -2   9  -36.32   51.62
  -1   2   9   12.92    6.33
   1   2  -9    7.17   16.64
   1  -2   9    0.51    5.71
  -1  -2  -9    7.14   26.87
   1   2   9    8.05    6.56
  -1   2  -9    3.48    3.57
   1  -2  -9   -2.05    3.10
  -1  -2   9   17.14   28.63
   1  -2  -9   11.53   22.74
  -1   2  -9   30.14   25.15
  -1  -2   9    7.19    6.34
   1   2   9   -6.96   33.47
   1   2 -10    3.70    3.98
   1  -2  10    6.60    7.65
   1  -2  10   -9.81   42.32
  -1  -2 -10   -0.32    3.33
  -1  -2 -10   11.67   24.16
  -1   2  10   37.91   46.25
  -1   2  10    3.98    5.09
   1   2 -10   -0.49   21.36
  -1  -2  10    1.24    5.92
   1  -2 -10    3.71    3.75
   1   2  10    3.73    6.60
   1   2  10   67.80   47.75
  -1   2 -10    0.37    3.30
  -1  -2  10   -9.40   29.44
   1  -2 -10    6.38   21.20
  -1   2 -10  -12.13   22.34
  -1  -2 -11   -3.64   27.15
   1   2 -11    0.58    3.73
   1  -2  11    0.44    6.70
  -1   2  11    1.48    4.67
  -1  -2 -11    7.47    5.10
   1   2 -11  -39.60   29.03
  -1   2  11  -32.21   49.66
   1  -2  11   69.83   46.46
  -1  -2  11  -22.22   45.08
  -1   2 -11   12.09    5.64
   1   2  11   59.35   66.98
  -1   2 -11   37.55   32.72
   1  -2 -11   -2.60    3.07
   1   2  11    3.75    7.08
   1  -2 -11   11.73   33.72
  -1  -2  11   -3.85    5.27
  -2  -2   0   63.41    9.27
   2   2   0   63.02    9.22
   2  -2   0   51.46    9.01
  -2  -2   0   68.20    9.38
  -2  -2   0   64.57    7.82
  -2   2   0   54.54    9.14
   2   2   0   61.31    9.36
   2   2   0   67.08    7.96
  -2  -2  -1  381.15   48.45
   2  -2   1  394.06   48.67
   2   2  -1  384.53   48.12
  -2  -2  -1  321.71   51.26
   2  -2   1  404.95   46.85
  -2  -2  -1  357.45   47.05
  -2  -2  -1  346.11   47.19
  -2   2   1  433.41   49.88
   2  -2   1  418.29   48.53
  -2  -2  -1  419.56   49.42
   2   2  -1  374.29   46.95
  -2   2   1  388.03   47.63
   2  -2  -1  391.81   47.57
  -2   2  -1  365.83   47.97
  -2  -2   1  393.15   46.95
   2  -2  -1  445.00   48.84
  -2  -2   1  385.95   48.31
   2   2   1  353.14   47.15
   2   2   1  360.42   48.25
  -2  -2   1  397.48   48.02
  -2   2   2 3358.04  393.01
   2   2  -2 3222.03  390.86
   2  -2   2 3044.17  391.69
   2  -2   2 3161.67  390.81
   2   2   2 2909.21  395.16
  -2   2  -2 3244.68  391.30
   2  -2  -2 3426.02  391.93
   2   2  -3  369.97   49.60
  -2  -2  -3  391.80   48.70
   2  -2   3  361.53   48.73
  -2  -2  -3  358.94   52.88
   2  -2   3  400.26   51.73
   2  -2   3  382.75   46.69
   2   2  -3  421.33   46.78
  -2  -2  -3  379.63   46.81
   2   2   3  366.43   48.28
  -2   2  -3  375.01   46.48
  -2   2  -3  383.70   50.49
   2  -2  -3  392.94   51.03
  -2  -2   3  374.22   46.75
   2   2   3  342.13   54.77
  -2  -2   3  376.92   50.57
   2  -2  -3  386.82   46.92
   2   2   3  333.58   46.88
   2   2  -4 1410.96  174.94
  -2  -2  -4 1467.24  173.21
  -2  -2  -4 1400.19  177.86
  -2   2   4 1408.29  178.45
  -2  -2  -4 1369.55  170.88
   2  -2   4 1259.51  170.77
   2  -2   4 1359.94  173.14
  -2   2  -4 1401.91  170.59
   2  -2  -4 1449.63  171.09
  -2  -2   4 1468.25  176.63
   2  -2  -4 1567.70  176.87
   2   2   4 1377.27  172.53
   2   2   4 1352.59  171.16
  -2   2  -4 1356.31  175.50
  -2  -2   4 1422.36  170.95
   2  -2   5  159.39   24.19
   2   2  -5  186.41   21.97
  -2  -2  -5  159.35   31.44
  -2   2   5  173.73   22.19
  -2  -2  -5  161.83   21.89
  -2   2   5  137.22   31.45
   2  -2   5  239.17   39.51
   2  -2   5  165.27   22.00
   2   2  -5  201.77   28.87
   2   2   5  146.42   22.11
  -2   2  -5  161.82   21.58
   2  -2  -5  172.88   22.18
   2   2   5  162.18   23.57
   2   2   5  218.37   39.80
  -2  -2   5  199.60   38.33
  -2  -2   5  167.43   22.05
  -2   2  -5  218.69   30.11
   2  -2  -5  141.54   27.87
  -2  -2  -6  478.98   63.60
  -2  -2  -6  441.10   53.12
  -2   2   6  378.21   53.12
   2   2  -6  409.15   52.92
   2   2  -6  429.60   60.11
   2  -2   6  420.80   55.66
   2  -2   6  501.32   66.63
  -2   2   6  553.08   69.64
   2  -2   6  416.43   53.25
  -2   2  -6  374.90   52.59
   2   2   6  440.17   55.14
  -2  -2   6  406.69   53.20
  -2  -2   6  445.70   63.35
   2   2   6  680.42   96.67
   2  -2  -6  470.65   62.44
  -2   2  -6  457.54   61.24
   2   2   6  408.51   53.51
   2  -2  -6  430.29   53.27
   2  -2   7  234.88   56.20
  -2   2   7  166.76   25.31
   2   2  -7  248.48   41.51
  -2   2   7  331.60   58.19
   2   2  -7  187.08   25.19
  -2  -2  -7  256.93   49.94
   2  -2   7  216.47   28.54
   2  -2   7  180.80   25.51
  -2  -2  -7  204.09   25.41
   2  -2  -7  211.40   36.72
   2   2   7  250.85   69.26
   2   2   7  181.93   27.14
  -2  -2   7  161.32   39.46
  -2   2  -7  182.29   36.46
   2  -2  -7  186.82   25.47
  -2   2  -7  194.14   24.98
  -2  -2   7  201.53   25.74
   2   2   7  173.04   25.60
  -2   2   8  352.33   42.92
   2   2  -8  335.49   42.93
   2  -2   8  345.54   46.28
  -2  -2  -8  350.68   43.08
  -2  -2  -8  511.60   78.17
   2  -2   8  365.93   43.76
   2   2  -8  403.42   61.04
   2  -2   8  348.24   67.70
   2   2   8  302.79   44.97
   2   2   8  394.57   76.32
   2   2   8  311.29   43.57
   2  -2  -8  336.56   58.08
  -2  -2   8  420.99   74.25
   2  -2  -8  329.91   43.13
  -2   2  -8  309.19   42.48
  -2  -2   8  312.32   43.29
  -2   2  -8  277.48   52.81
  -2   2   9   -3.44   35.02
   2   2  -9   58.20   31.59
  -2  -2  -9   38.73   32.62
   2  -2   9   75.53   16.43
   2  -2   9   12.88   27.35
   2  -2  -9   59.25   10.79
  -2   2  -9   22.34   21.35
  -2  -2   9  -10.98   35.24
   2   2   9  -65.10   36.22
   2  -2  -9   45.35   34.28
   2  -2  10  115.66   23.13
  -2   2  10  102.26   15.09
  -2  -2 -10   43.86   34.54
  -2  -2 -10  116.43   17.96
   2   2 -10  100.48   17.09
   2   2 -10   63.79   32.18
  -2   2  10   50.55   48.17
   2  -2  10   13.91   57.83
   2  -2 -10  103.36   15.42
  -2  -2  10   46.12   44.07
  -2   2 -10   77.76   34.34
   2   2  10  162.59   63.98
  -2   2 -10   99.66   14.84
   2   2  10  115.11   22.25
  -2  -2  10  113.48   20.98
   2  -2 -10   55.36   28.59
   2   2 -11  -10.90   30.52
   2  -2  11   43.57   60.12
   2   2 -11   45.48   10.63
  -2   2  11  -11.52   56.68
  -2  -2 -11   58.93   11.21
  -2  -2 -11   21.63   35.43
  -2  -2  11  -34.33   46.07
  -2  -2  11   56.70   14.49
   2  -2 -11   43.86   10.76
   2   2  11   40.19   65.57
  -2   2 -11   27.92   34.71
   2   2  11   42.81   15.27
   2  -2 -11   30.39   31.71
  -2   2 -11   47.03   10.28
  -3  -2   0    1.29    2.46
   3  -2   0    0.16    2.03
  -3   2   0    0.01    2.34
   3   2   0   -2.06    1.85
   3   2   0   -1.15    2.41
  -3  -2   0   -0.60    2.50
   3   2   0   -0.05    0.63
  -3  -2  -1    0.43    3.24
   3  -2   1    0.45    2.46
  -3   2   1   -2.33    4.26
  -3  -2  -1    0.16    0.61
   3  -2   1    0.96    3.27
  -3  -2  -1    0.95    7.01
   3  -2   1    0.28    0.51
   3   2  -1    0.89    0.78
  -3  -2  -1    0.91    0.65
  -3  -2  -1   -1.65    1.82
  -3   2   1   -0.17    1.94
   3   2  -1    1.08    1.86
   3   2  -1   -0.17    2.20
   3   2   1    1.55    1.31
   3   2   1   -0.57    0.91
  -3   2  -1    4.38    2.37
   3  -2  -1    1.38    1.77
   3   2   1    2.71    2.60
  -3   2  -1    0.14    2.46
  -3  -2   1   -0.31    0.48
   3  -2  -1   -0.38    1.99
  -3  -2   1    1.76    2.47
  -3  -2   1    2.15    2.17
  -3  -2  -2    1.23    1.89
   3  -2   2   -0.57    3.00
   3   2  -2    2.46    2.64
   3   2  -2    1.12    1.14
   3  -2   2   -1.86    4.64
   3  -2   2    1.49    1.03
  -3   2   2   -0.60    5.96
  -3  -2  -2   -2.77    2.05
  -3  -2  -2    1.29    1.15
  -3   2   2    1.37    1.98
  -3  -2  -2   10.85    7.34
   3  -2  -2   -0.98    3.51
  -3   2  -2    1.13    3.94
  -3  -2   2    2.58    2.49
   3  -2  -2    1.68    1.86
  -3  -2   2    3.15    1.33
   3   2   2    1.40    1.50
  -3  -2   2    0.88    3.52
   3   2   2   -0.41    9.42
   3   2   2    4.93    3.07
  -3   2  -2    1.79    0.82
   3  -2   3    1.32    3.45
  -3  -2  -3   -2.50    7.76
   3   2  -3    4.27    1.80
  -3   2   3    4.57    7.93
   3  -2   3    2.24    1.71
  -3  -2  -3    0.90    3.63
  -3  -2  -3    3.46    1.88
   3  -2   3   -0.99    7.07
   3   2  -3    1.03    3.74
   3  -2  -3   10.60    5.81
  -3  -2   3    3.46    4.73
   3   2   3    1.74    2.13
   3   2   3    9.92   11.82
   3  -2  -3    1.85    1.70
  -3  -2   3    3.19    1.81
  -3   2  -3    2.05    5.55
  -3  -2   3    4.79    3.07
  -3   2  -3    3.42    1.42
   3   2   3    4.00    3.85
  -3   2   4    7.27   10.09
   3  -2   4    0.44    9.45
   3  -2   4    1.61    3.80
  -3  -2  -4   -6.96    9.38
   3   2  -4    2.48    5.54
   3   2  -4    2.73    1.94
   3  -2   4    3.62    2.17
  -3  -2  -4    4.55    4.10
  -3  -2  -4    1.64    1.86
   3  -2  -4    4.41    6.99
   3   2   4    0.29    1.97
   3  -2  -4    0.93    1.74
  -3  -2   4    1.92    1.96
  -3   2  -4    3.26    1.67
  -3   2  -4    2.82    6.48
   3   2   4    3.93   13.07
   3   2   4    0.00    2.83
   3  -2   5   13.56   12.36
   3  -2   5   -1.05    3.14
   3   2  -5    2.44    7.27
  -3  -2  -5   -1.31    1.42
   3  -2   5   -0.57    1.68
   3   2  -5    0.88    1.83
  -3  -2  -5  -13.88   10.30
  -3  -2   5    1.61    2.24
   3   2   5    0.33    2.11
  -3   2  -5   -0.72    1.36
   3   2   5  -12.19   15.20
   3   2   5    0.94    3.58
   3  -2  -5    4.99    8.25
  -3   2  -5    1.60    8.08
  -3  -2   5   -4.58    8.02
   3  -2  -5    4.63    2.58
   3   2  -6  -10.76    7.16
   3  -2   6    3.42    5.24
  -3   2   6   15.31   14.98
   3  -2   6    2.21    2.54
  -3  -2  -6    0.37    1.94
  -3  -2  -6   11.40   15.77
   3   2  -6   -0.25    1.86
   3  -2   6   -7.28   14.39
   3   2   6   -5.35   20.12
  -3   2  -6   -1.65   10.12
   3  -2  -6    3.55   10.55
  -3   2  -6    2.06    2.09
  -3  -2   6    4.12    2.90
   3   2   6    2.07    4.11
  -3  -2   6    7.75   13.17
   3   2   6    2.09    2.81
   3  -2  -6    2.17    2.22
  -3  -2  -7  -32.13   28.70
   3   2  -7   -6.55   11.44
   3   2  -7    7.08    3.54
   3  -2   7   -0.30    4.98
   3  -2   7    5.97    3.99
  -3  -2  -7    2.17    2.94
   3  -2   7   20.20   21.93
  -3   2   7    8.58   20.01
  -3  -2   7   16.83   13.33
   3   2   7   -0.56    4.45
   3   2   7   13.14   25.51
   3  -2  -7  -13.09   13.04
  -3   2  -7  -22.92   10.90
   3  -2  -7    5.36    3.86
  -3  -2   7    2.83    3.31
   3   2   7    4.51    3.99
  -3   2  -7    5.34    3.12
  -3  -2  -8    2.67    3.45
   3   2  -8   -7.89   13.01
  -3   2   8   26.17   22.32
   3  -2   8    0.26    4.87
   3  -2   8   16.97   29.65
   3  -2   8   -1.88    2.67
   3   2  -8   -1.53    2.58
  -3  -2  -8   38.60   22.44
  -3   2  -8    1.52    2.71
   3   2   8  111.69   55.38
   3   2   8    1.13    3.77
  -3   2  -8  -22.85   19.55
   3  -2  -8  -10.86   14.33
  -3  -2   8  -14.62   19.25
   3  -2  -8   -3.82    2.17
  -3  -2   8   -1.02    3.08
   3   2   8    4.07    5.44
   3  -2   9   56.02   40.55
  -3  -2  -9    2.18    3.36
   3   2  -9    3.41    3.58
   3   2  -9   -2.53   15.43
  -3   2   9   43.62   33.35
  -3  -2  -9   12.99   26.54
   3  -2   9    4.92    6.99
  -3  -2   9    6.22    3.62
   3   2   9    6.27    6.87
  -3  -2   9  -17.18   26.19
   3   2   9  -38.05   43.19
   3  -2  -9   -5.95   19.96
  -3   2  -9  -13.93   22.51
  -3   2  -9    7.36    3.87
   3  -2  -9    9.11    5.29
  -3   2  10   37.23   48.22
   3  -2  10    5.26   45.30
   3   2 -10   -8.73   18.62
  -3  -2 -10  -39.75   27.86
  -3  -2 -10    3.32    4.15
   3   2 -10    1.90    3.81
   3  -2 -10   18.19   24.55
   3   2  10   -4.13    5.50
  -3   2 -10    0.03    3.31
   3   2  10   63.22   78.63
  -3   2 -10    8.04   25.91
   3  -2 -10    4.65    4.53
  -3  -2  10  -30.89   33.13
  -3   2  11  -16.52   59.34
   3   2 -11   15.67   32.34
  -3  -2 -11    3.39   28.50
   3  -2  11  -30.72   92.94
  -3  -2 -11    0.63    3.92
   3   2 -11   13.40    5.59
  -3   2 -11    2.18    3.85
   3  -2 -11    5.57    5.10
  -3  -2  11    1.59    4.31
  -3  -2  11   -8.91   45.38
  -3   2 -11    7.41   30.45
   3  -2 -11  -20.47   33.74
  -4  -2   0 2715.18  336.37
   4   2   0 2583.50  335.38
  -4   2   0 2739.65  336.32
   4   2   0 2738.86  336.06
  -4  -2   0 2879.47  335.27
   4  -2   0 2828.95  336.17
  -4  -2  -1  371.68   57.79
   4  -2   1  414.36   54.59
   4   2  -1  429.52   51.91
   4   2  -1  439.42   53.96
   4   2  -1  393.11   53.53
  -4   2   1  450.06   54.17
   4  -2   1  387.93   54.90
  -4  -2  -1  445.39   55.01
  -4  -2  -1  442.35   54.52
  -4   2  -1  428.27   55.04
  -4  -2   1  431.71   54.24
  -4   2  -1  442.68   52.87
   4   2   1  393.91   52.15
  -4  -2   1  460.83   53.78
   4   2   1  434.92   54.59
   4  -2  -1  413.13   53.63
  -4   2   2 1453.30  175.49
   4   2  -2 1420.76  175.68
   4  -2   2 1319.37  176.78
  -4  -2  -2 1487.64  177.38
   4  -2   2 1519.87  179.04
   4   2  -2 1438.32  175.91
  -4  -2  -2 1522.90  180.63
  -4   2   2 1539.51  178.00
  -4  -2   2 1498.61  176.86
  -4   2  -2 1418.87  176.41
   4   2   2 1387.66  174.39
   4  -2  -2 1360.44  175.59
   4  -2  -2 1412.01  175.16
  -4  -2   2 1447.04  175.98
   4   2   2 1378.84  176.72
  -4   2  -2 1342.40  177.30
  -4   2   3  385.35   46.35
   4   2  -3  359.05   48.18
  -4  -2  -3  349.82   48.71
  -4  -2  -3  371.40   45.28
  -4  -2  -3  332.45   46.09
   4  -2   3  332.91   48.30
   4  -2   3  405.64   53.09
   4  -2   3  373.89   45.50
   4   2  -3  377.49   45.53
  -4  -2  -3  346.21   52.60
  -4   2   3  414.58   52.12
  -4   2  -3  383.54   49.53
  -4  -2   3  353.68   45.34
  -4  -2   3  376.73   46.98
   4   2   3  366.40   48.24
   4  -2  -3  380.57   48.76
   4  -2  -3  378.54   45.67
  -4  -2   3  359.84   49.50
   4   2   3  378.22   57.89
  -4   2  -3  360.46   45.01
   4   2   3  372.50   45.92
  -4  -2  -4  405.69   52.54
   4  -2   4  384.95   48.86
  -4   2   4  411.85   57.45
   4   2  -4  393.26   48.79
   4  -2   4  402.87   52.27
   4  -2   4  408.71   58.53
   4   2  -4  382.28   52.44
  -4  -2  -4  325.35   50.02
  -4  -2  -4  438.05   57.72
  -4  -2  -4  391.21   48.57
  -4  -2   4  368.54   48.70
  -4  -2   4  372.41   54.57
   4   2   4  351.80   51.29
  -4   2  -4  400.80   48.32
   4   2   4  418.32   64.42
  -4  -2   4  401.31   49.89
   4  -2  -4  426.52   49.09
  -4   2  -4  467.65   54.94
   4  -2  -4  463.61   54.16
   4   2   4  366.12   49.17
   4  -2   5  102.95   14.63
  -4  -2  -5  107.97   22.38
  -4  -2  -5   88.71   24.21
   4  -2   5  114.53   21.56
  -4  -2  -5  101.73   14.26
  -4   2   5  119.01   27.77
   4   2  -5  107.83   14.52
   4   2  -5  133.62   24.38
   4  -2   5   96.74   27.61
   4   2   5  120.36   17.65
  -4  -2   5   92.69   23.87
  -4  -2   5  117.26   15.50
  -4   2  -5  154.86   28.45
  -4  -2   5  106.56   14.54
  -4   2  -5  100.76   13.98
   4  -2  -5  145.43   25.67
   4   2   5  162.20   39.55
   4  -2  -5  114.06   14.84
   4   2   5   93.66   14.81
  -4  -2  -6  405.09   49.61
  -4   2   6  537.45   79.71
   4  -2   6  262.71   62.28
   4   2  -6  441.83   57.01
  -4  -2  -6  336.08   62.75
   4  -2   6  374.04   53.32
   4  -2   6  385.55   50.12
   4   2  -6  409.19   49.88
  -4  -2   6  392.80   50.43
   4   2   6  371.89   52.81
  -4  -2   6  397.59   49.96
   4  -2  -6  401.82   57.53
  -4   2  -6  405.14   49.31
   4   2   6  403.63   50.53
   4   2   6  334.45   68.83
   4  -2  -6  433.32   50.23
  -4   2  -6  355.81   57.22
   4  -2   7   54.35   14.49
   4  -2   7   58.12   11.19
   4   2  -7   42.77   16.32
  -4   2   7   35.28   28.69
   4   2  -7   40.96    9.01
   4  -2   7  -19.10   22.87
  -4  -2  -7   69.05   10.30
  -4  -2  -7   19.00   20.26
  -4   2  -7   54.66    9.07
  -4  -2   7   46.88   23.16
  -4  -2   7   67.02   10.92
   4   2   7   13.60   30.80
   4   2   7   73.55   16.35
   4   2   7   51.95   10.47
  -4   2  -7   32.90   18.44
   4  -2  -7   55.77   10.21
   4  -2  -7   48.60   19.79
  -4   2   8  238.30   52.75
   4  -2   8  202.68   27.25
  -4  -2  -8  154.92   21.90
   4  -2   8  112.26   41.84
   4   2  -8  170.29   22.35
  -4  -2  -8  151.69   42.87
   4   2  -8  167.18   35.53
   4  -2  -8  154.17   32.58
  -4  -2   8  160.48   44.12
   4   2   8  198.83   27.16
  -4  -2   8  163.76   22.51
   4  -2  -8  154.17   22.39
  -4   2  -8  158.22   21.63
  -4   2  -8  117.55   32.56
  -4  -2  -9  105.73   14.73
   4   2  -9   56.25   25.60
   4  -2   9   91.41   44.22
  -4   2   9  100.73   42.85
  -4  -2  -9  187.53   46.81
   4   2  -9   95.33   14.92
  -4  -2   9  139.70   45.94
   4   2   9   92.54   51.92
  -4   2  -9  104.55   33.30
   4  -2  -9  110.29   17.56
  -4   2  -9   94.93   14.44
  -4  -2   9   99.87   15.21
   4  -2  -9   58.98   29.09
   4   2   9  135.00   24.80
   4   2 -10  125.29   17.74
  -4  -2 -10  112.70   17.07
  -4  -2 -10  124.60   44.44
  -4   2  10   54.17   45.70
   4   2 -10   89.73   28.33
   4  -2 -10  134.55   18.01
  -4  -2  10   26.22   45.36
  -4   2 -10   96.26   38.36
   4  -2 -10  142.54   39.06
  -4   2 -10  122.05   17.11
   4   2 -11   32.72    8.34
  -4   2  11  -25.55   49.71
  -4  -2 -11   29.50    7.17
   4   2 -11  -22.28   26.52
  -4  -2 -11   17.10   38.70
   4  -2  11   13.83   68.49
   4   2  11   23.86   70.56
  -4  -2  11   -1.29   59.57
  -4   2 -11  -16.36   33.27
  -4   2 -11   29.14    7.06
   4  -2 -11   11.92   29.96
   5   2   0    0.86    2.76
  -5  -2   0    8.78    3.63
  -5   2   0    4.21    4.09
  -5  -2   0    3.68    3.89
   5  -2   0    0.66    2.82
   5   2   0    0.61    0.93
  -5   2   1   -0.03    3.20
  -5  -2  -1   -2.85    3.72
  -5  -2  -1    3.69    4.49
  -5  -2  -1   -6.21    9.61
   5   2  -1    9.25    4.16
   5  -2   1    3.36    4.60
   5   2  -1    0.75    3.04
   5   2  -1    2.54    1.17
  -5  -2   1    2.24    3.60
  -5   2  -1    6.67    5.33
   5   2   1    4.23    1.82
   5   2   1    4.98    4.45
  -5  -2   1    4.25    4.48
  -5  -2  -2    2.09    9.93
   5   2  -2   -5.87    3.68
  -5   2   2   -5.98    7.22
   5  -2   2   -0.53    3.07
  -5  -2  -2    5.20    4.85
   5   2  -2   -1.80    2.07
   5  -2   2   11.99   10.84
   5   2  -2    1.86    1.28
   5  -2   2    0.56    1.09
  -5   2   2    1.48    2.97
  -5  -2  -2    2.34    7.38
  -5   2  -2   -3.30    4.63
   5  -2  -2    3.19    3.21
   5  -2  -2   -1.41    3.03
   5   2   2    3.48    4.59
  -5   2  -2    1.11    3.91
   5  -2  -2    1.19    1.15
  -5  -2   2    1.70    3.11
   5   2   2    1.28    1.66
  -5  -2   2   -2.63    4.44
  -5  -2  -3   -2.27   10.05
  -5  -2  -3    1.46    0.92
  -5  -2  -3   -0.78    3.88
  -5  -2  -3    1.86    1.12
  -5   2   3   14.77   10.10
   5  -2   3    0.07    1.23
  -5   2   3    2.02    3.17
   5  -2   3   -7.15   13.18
   5   2  -3    0.79    1.37
   5  -2   3    1.59    4.46
   5   2  -3    1.59    4.89
  -5  -2   3   -0.24    2.12
   5  -2  -3   -6.00    4.66
   5   2   3    1.29    3.64
   5  -2  -3    0.26    1.42
  -5   2  -3    3.06    6.56
   5   2   3   -2.23    1.15
  -5  -2   3   -0.27    6.71
   5  -2  -3    2.03    2.55
  -5  -2  -4    3.54    2.04
   5  -2   4   -8.23   14.78
  -5   2   4   -6.59   11.76
  -5  -2  -4  -10.21    9.77
  -5   2   4   -2.11    1.87
  -5  -2  -4    1.86    1.43
   5   2  -4   -2.83    5.54
   5   2  -4    1.92    1.90
   5  -2   4    1.70    4.97
   5  -2   4    0.36    1.74
  -5  -2  -4    0.54    4.80
  -5  -2   4    7.49   10.36
  -5   2  -4   -1.78    7.28
   5   2   4   16.84   19.67
  -5  -2   4    3.98    3.51
   5   2   4    0.04    3.45
   5  -2  -4   -2.19    6.87
   5  -2  -4   -1.61    1.38
   5   2   4   -0.37    1.95
  -5   2  -4    0.48    1.07
  -5   2  -4    2.43    1.65
   5  -2   5    6.59    6.11
  -5  -2  -5    5.27    4.65
  -5  -2  -5    8.63    2.77
   5  -2   5    8.92   21.09
  -5  -2  -5   11.42   12.73
   5  -2   5    7.03    3.41
  -5   2   5   -9.50   12.68
   5   2  -5    2.20    2.59
   5   2  -5   16.77    9.32
  -5  -2  -5   14.94    8.01
  -5   2  -5    6.77    2.39
  -5  -2   5   12.27    4.63
  -5  -2   5    3.69   13.10
   5  -2  -5    3.34    8.92
   5  -2  -5    4.72    3.22
   5   2   5    9.08    7.12
   5   2   5   47.91   27.64
   5   2   5    3.70    3.36
  -5   2  -5   22.27   12.39
   5  -2   6  -62.80   22.09
  -5  -2  -6    3.64    2.31
   5  -2   6    6.66    6.22
   5   2  -6   15.02   10.22
  -5  -2  -6   -0.57   14.58
  -5   2   6  -14.41   19.02
   5  -2   6    0.72    3.01
  -5  -2  -6   12.31    5.82
   5   2  -6    1.15    2.38
   5  -2  -6  -14.66    9.35
  -5   2  -6  -19.01   13.00
   5   2   6   -0.32    2.86
  -5   2  -6   -0.52    1.73
  -5  -2   6   -1.02   13.28
   5   2   6  -16.68   26.26
   5  -2  -6    2.96    3.03
  -5  -2   6    3.42    3.93
   5   2   6    9.08    6.67
   5  -2   7   11.29    8.31
  -5  -2  -7    6.35    3.09
  -5   2   7  -14.20   19.39
   5  -2   7    0.04    3.55
   5   2  -7   -7.42   11.33
  -5  -2  -7   -7.79   16.46
   5  -2   7   -6.22   31.70
   5   2  -7    4.60    3.38
  -5  -2   7    5.70   22.56
   5  -2  -7    1.05    3.21
   5   2   7    6.93    7.29
  -5   2  -7  -35.81   13.04
  -5   2  -7    4.82    2.70
   5   2   7    3.12    4.41
   5   2   7   18.18   35.52
   5  -2  -7    5.14   13.84
  -5  -2   7    2.86    3.01
  -5  -2  -8   -0.26    2.73
   5   2  -8  -15.81   14.13
  -5  -2  -8   11.06   21.80
   5  -2   8  -33.81   33.80
   5   2  -8    3.03    3.32
  -5  -2   8   -9.45   23.64
  -5  -2   8    2.59    3.19
   5  -2  -8    3.45    3.80
   5  -2  -8    4.26   15.27
  -5   2  -8    8.48    3.37
  -5   2  -8   13.73   20.18
   5   2   8   -1.32   39.43
   5   2  -9  -10.55   17.46
  -5  -2  -9    4.03    3.78
  -5  -2  -9   37.85   28.07
   5   2  -9    4.89    4.01
  -5   2   9  -10.42   34.40
  -5   2  -9    5.34    3.58
   5  -2  -9    4.32    4.35
   5  -2  -9   15.50   20.38
  -5  -2   9  -42.58   29.22
  -5   2  -9  -11.20   23.71
  -5   2  10   79.69   51.69
   5  -2  10   23.17   65.44
  -5  -2 -10   58.56   31.77
   5   2 -10   23.30   26.31
  -5   2 -10   35.16   28.60
   5   2  10   93.27   64.72
  -5  -2  10   -9.47   41.13
   6  -2   0  600.76   81.16
   6   2   0  607.42   81.19
  -6   2   0  654.28   82.10
  -6  -2   0  642.44   82.11
  -6  -2   0  666.30   79.51
   6   2   0  648.08   78.05
   6   2  -1  102.72   15.61
  -6   2   1  113.48   16.52
  -6  -2  -1  105.26   15.79
  -6  -2  -1   88.52   21.63
  -6  -2  -1  106.08   20.19
   6   2  -1   95.42   12.62
   6  -2   1  100.95   12.31
   6   2  -1  115.77   17.14
   6  -2   1  103.92   16.25
  -6   2  -1  157.95   24.95
   6   2   1   77.18   13.09
   6   2   1  105.70   16.29
  -6  -2   1  111.47   15.55
  -6  -2   1  140.85   22.43
  -6  -2  -2  484.49   58.43
   6  -2   2  466.45   53.80
   6  -2   2  477.86   58.35
   6   2  -2  451.02   56.50
  -6   2   2  437.85   56.81
   6   2  -2  442.78   53.84
  -6  -2  -2  419.99   60.37
  -6  -2  -2  419.69   58.55
   6   2  -2  449.66   56.46
   6   2   2  396.88   54.21
  -6  -2   2  422.42   56.89
  -6  -2   2  437.04   57.06
   6   2   2  414.67   57.49
   6  -2  -2  426.94   53.76
  -6   2  -2  411.68   58.45
   6  -2  -2  441.70   56.06
  -6   2  -2  449.83   55.88
   6  -2   3  167.31   23.71
  -6  -2  -3  192.20   31.44
  -6  -2  -3  183.92   30.66
   6  -2   3  142.32   19.35
  -6   2   3  155.28   28.82
  -6   2   3  160.61   21.70
   6   2  -3  146.01   19.29
   6  -2   3  116.64   32.42
  -6  -2  -3  137.52   29.22
   6   2  -3  161.79   25.10
  -6  -2   3  169.80   26.85
   6  -2  -3  155.82   19.42
   6   2   3  143.17   19.77
  -6   2  -3  158.31   24.14
   6  -2  -3  141.40   20.78
   6  -2  -3  159.73   22.01
   6   2   3  154.31   23.18
  -6  -2  -4  402.39   47.84
  -6   2   4  397.66   50.28
  -6   2   4  364.57   58.30
  -6  -2  -4  396.93   54.14
   6   2  -4  371.67   52.24
  -6  -2  -4  393.34   48.08
   6  -2   4  387.84   53.22
  -6  -2  -4  370.05   57.41
   6  -2   4  305.51   61.81
   6   2  -4  398.57   48.70
   6  -2   4  395.77   48.90
   6   2   4  377.73   52.67
   6  -2  -4  399.75   52.35
  -6   2  -4  380.92   53.96
   6   2   4  365.04   49.19
  -6  -2   4  402.22   55.47
   6  -2  -4  394.45   48.81
  -6  -2   4  428.04   51.20
  -6  -2  -5  190.57   28.86
  -6  -2  -5  134.71   33.58
  -6  -2  -5  184.93   23.50
   6  -2   5  176.25   23.26
  -6  -2  -5  169.95   22.19
  -6   2   5  189.00   23.99
   6  -2   5  168.42   27.34
   6  -2   5   94.52   37.86
   6   2  -5  163.33   22.85
  -6   2   5  221.17   40.48
   6   2  -5  191.09   31.20
  -6  -2   5  262.63   41.24
  -6   2  -5  176.57   21.97
  -6  -2   5  167.41   24.48
   6  -2  -5  214.94   29.71
   6  -2  -5  177.61   23.15
   6   2   5  176.47   23.57
   6   2   5  200.74   27.65
  -6   2  -5  157.58   31.03
   6   2   5  153.85   44.97
   6   2  -6  391.96   47.71
  -6  -2  -6  327.45   48.69
   6  -2   6  374.11   52.87
  -6  -2  -6  375.18   64.48
  -6   2   6  430.46   70.52
   6  -2   6  199.69   65.99
   6  -2   6  393.58   48.24
  -6  -2  -6  381.02   46.90
   6   2  -6  433.87   55.17
   6   2   6  240.70   69.87
   6  -2  -6  425.47   55.02
   6  -2  -6  384.67   47.90
  -6   2  -6  391.33   46.73
  -6  -2   6  493.37   62.73
   6   2   6  352.83   51.69
   6   2   6  358.72   48.30
  -6  -2   6  375.22   49.02
  -6   2  -6  351.61   56.03
   6   2  -7  149.48   19.66
  -6  -2  -7  133.06   24.14
   6  -2   7  180.42   49.93
   6  -2   7  128.90   19.93
  -6  -2  -7  142.17   18.77
  -6   2   7  110.53   40.41
   6   2  -7  194.63   34.70
  -6  -2  -7  238.96   43.14
   6   2   7   75.08   49.00
  -6   2  -7  141.59   18.58
   6   2   7  134.65   20.18
  -6  -2   7  158.89   20.79
   6  -2  -7  141.52   19.78
  -6  -2   7   92.12   34.84
  -6   2  -7  166.24   34.91
  -6  -2  -8  116.32   15.88
  -6   2   8  139.34   43.69
  -6  -2  -8  118.89   23.06
   6   2  -8  118.61   16.66
   6  -2   8  -23.66   56.46
  -6  -2  -8  126.67   40.39
   6   2  -8   91.78   28.11
  -6  -2   8  111.10   38.96
   6  -2  -8  144.40   27.51
   6  -2  -8  135.77   17.27
  -6   2  -8   72.52   28.05
  -6   2  -8  112.50   15.65
  -6  -2  -9   27.69    5.97
   6   2  -9   19.75    6.58
  -6   2   9  -25.46   41.32
   6   2  -9    4.26   16.77
   6  -2   9  -25.56   51.55
  -6  -2  -9    9.09   31.55
  -6  -2  -9   26.52   11.26
   6   2   9  -39.28   56.74
  -6  -2   9   30.08   40.12
  -6   2  -9   10.30   26.26
   6  -2  -9   15.24   21.13
  -6   2  -9   21.35    5.03
   6  -2  -9   21.16    6.59
  -6   2  10  -37.90   51.54
  -6  -2 -10   81.45   39.75
   6   2 -10   25.78   24.08
   6  -2  10  148.97   76.15
  -6  -2  10  -11.38   47.91
   6  -2 -10  -13.86   24.42
   6   2  10  -39.66   73.34
  -6   2 -10    5.04   29.57
  -7   2   0   11.59    7.36
  -7  -2   0    4.48    4.02
   7  -2   0    2.82    4.90
   7   2   0    2.90    1.51
   7   2   0   -3.34    2.50
  -7  -2   0   12.85   13.24
  -7  -2   0   -2.10    3.84
  -7  -2  -1    6.95    4.67
   7   2  -1   -0.13    5.55
   7   2  -1    3.31    3.96
  -7  -2  -1    1.85   11.02
   7  -2   1    2.64    0.91
   7   2  -1    0.62    1.21
   7  -2   1   -0.26    3.47
  -7   2   1    2.56    5.60
  -7  -2  -1    3.08    5.16
  -7  -2   1   -1.96    3.88
  -7   2  -1    2.01    4.65
   7   2   1    6.26    2.30
   7   2   1    1.69    3.97
   7  -2  -1    1.88    4.37
  -7  -2   1    1.48    5.27
   7  -2   2    2.76    1.56
  -7   2   2    1.51    4.80
  -7  -2  -2   -2.56   10.58
  -7  -2  -2   -1.94    6.65
   7  -2   2    0.97    3.56
   7   2  -2   -0.53    5.94
  -7  -2  -2    3.25    5.53
   7   2  -2    2.60    1.66
   7   2  -2    0.29    3.52
   7   2   2    3.99    6.03
   7   2   2    2.40    1.93
   7  -2  -2    0.35    1.24
  -7  -2   2   10.94    7.26
   7  -2  -2    1.36    3.14
  -7  -2   2    6.11    5.47
  -7   2  -2    2.93    5.55
  -7  -2  -3   16.13   12.04
  -7  -2  -3    1.39    5.72
   7  -2   3   11.84    8.33
   7   2  -3    4.16    2.21
  -7   2   3    6.95    5.37
   7  -2   3    7.21    2.74
   7   2  -3    1.74    7.21
  -7   2   3   -0.56   14.69
  -7  -2  -3   20.59   13.14
  -7   2  -3   -9.35    6.87
  -7  -2   3    0.59    4.61
   7   2   3   10.11    3.33
   7  -2  -3    4.83    5.40
   7   2   3   11.03    7.86
  -7  -2   3  -20.52    8.30
   7  -2  -3    8.07    3.98
   7  -2  -3    6.43    2.43
  -7   2   4    2.17    3.79
  -7  -2  -4  -10.42   13.71
   7  -2   4  -19.82   22.61
  -7   2   4   -6.66   16.39
   7   2  -4    0.05    1.70
   7  -2   4    1.07    2.24
  -7  -2  -4    1.45    5.93
   7  -2   4   -2.08    3.85
   7   2  -4   -3.03    7.55
  -7  -2  -4    0.91   13.68
  -7   2  -4    0.01    9.22
   7  -2  -4   -8.48    6.40
  -7  -2   4    1.78    3.75
   7  -2  -4    0.86    1.96
  -7  -2   4   10.35   11.50
   7   2   4    3.78    4.86
   7   2   4   -2.06    2.07
   7  -2   5    2.69    3.18
   7  -2   5  -24.35   27.54
  -7  -2  -5   10.48   15.59
  -7   2   5    3.14    4.09
  -7   2   5   14.96   20.83
   7   2  -5    2.08    2.50
   7   2  -5  -13.20    8.82
  -7  -2  -5   10.69   10.41
   7  -2  -5    6.95    8.54
   7  -2  -5   -1.24    2.18
   7   2   5   -0.94    2.79
  -7  -2   5    7.02    5.53
  -7  -2   5   -3.48   15.17
  -7   2  -5    1.74   11.79
   7  -2   6    6.59    4.31
  -7   2   6    6.42    4.76
  -7  -2  -6   14.19    3.41
  -7   2   6    9.80   26.00
  -7  -2  -6   34.25   21.37
   7   2  -6    3.48    3.02
  -7  -2  -6    5.92    2.24
   7   2  -6   -1.97   11.39
   7  -2  -6    2.25    3.26
  -7  -2   6    8.97    6.25
  -7   2  -6   -7.34   13.18
   7   2   6    6.25    4.61
   7  -2  -6   12.02   11.85
  -7  -2   6   -3.27   18.35
  -7  -2  -7   14.13    4.72
   7   2  -7  -34.60   12.54
   7   2  -7    0.35    3.03
   7  -2   7   25.47   41.93
   7  -2   7    1.67    3.37
  -7  -2  -7   21.15   24.17
  -7  -2  -7    6.69    2.71
  -7   2   7   24.97   29.27
  -7  -2   7    4.04    5.07
   7  -2  -7   -8.23   14.32
  -7   2  -7   12.10    3.54
  -7   2  -7   14.75   17.94
  -7   2  -7    6.50    2.36
   7  -2  -7    8.85    4.62
  -7  -2   7  -12.04   23.44
   7   2   7   20.55   42.68
  -7  -2  -8   12.43    6.15
  -7  -2  -8    2.09    2.41
   7  -2   8   37.05   50.56
   7   2  -8    5.96   18.45
   7   2  -8   -0.39    3.03
  -7  -2  -8  -72.89   23.25
  -7   2   8   15.59   35.67
   7  -2  -8   -2.35   17.46
  -7   2  -8    4.86    4.46
   7   2   8   44.23   54.93
  -7  -2   8  -28.01   26.96
   7  -2  -8   -0.65    3.03
  -7  -2   8    2.78    3.91
  -7   2  -8   -0.67   21.16
  -7   2  -8   -0.38    1.85
  -7  -2  -9    0.76   30.02
   7  -2   9  -71.29   59.23
  -7  -2  -9    6.75    6.33
   7   2  -9   -1.01    3.23
   7   2  -9  -32.57   21.06
  -7   2   9    7.42   50.62
  -7  -2  -9    3.76    2.86
  -7   2  -9   -1.62    4.06
  -7  -2   9  -11.79   37.65
  -7   2  -9    1.92    2.50
   7   2   9   14.19   66.82
   7  -2  -9   27.99   21.32
   7  -2  -9    3.13    3.81
  -7   2  -9   49.67   27.29
   8  -2   0  187.87   28.31
  -8  -2   0  167.57   28.74
  -8   2   0  200.72   29.98
   8   2   0  195.84   24.37
   8   2   0  208.03   28.80
   8  -2   1   99.76   12.87
  -8  -2  -1  118.14   20.13
   8  -2   1  130.20   23.61
  -8  -2  -1   94.34   15.64
  -8   2   1  148.34   25.16
  -8  -2  -1  151.17   27.48
   8   2  -1   96.84   19.23
   8   2  -1  101.23   13.11
  -8   2  -1  140.62   27.29
   8   2   1   80.49   13.76
   8   2   1  123.02   22.58
   8  -2  -1  140.51   23.59
  -8  -2   1  146.91   24.93
  -8   2   2  350.58   46.44
  -8  -2  -2  330.20   48.23
   8   2  -2  342.09   41.50
  -8  -2  -2  378.00   47.99
   8   2  -2  294.36   43.88
   8  -2   2  331.41   41.57
   8   2  -2  351.91   45.28
  -8  -2  -2  322.68   44.76
   8  -2   2  346.19   46.95
  -8  -2   2  366.77   46.76
  -8   2  -2  352.10   48.90
   8   2   2  333.18   46.64
   8  -2  -2  358.47   45.13
  -8  -2   2  319.03   45.28
   8  -2  -2  319.73   41.31
   8   2  -3   95.69   12.99
  -8  -2  -3   97.54   23.20
  -8  -2  -3  126.36   24.79
   8  -2   3   86.83   13.17
  -8  -2  -3  132.42   22.51
   8   2  -3  106.20   19.09
  -8   2   3  131.22   21.46
   8  -2   3  109.52   22.32
   8  -2  -3   99.79   15.69
  -8  -2   3  112.54   20.75
  -8  -2   3  143.91   22.79
   8  -2  -3   96.34   12.99
   8   2   3   99.63   19.79
  -8   2  -3   85.34   16.69
  -8   2  -3   96.89   19.69
  -8  -2  -4  204.96   36.63
   8  -2   4  173.58   22.39
   8   2  -4  164.92   21.98
  -8   2   4  157.73   37.64
  -8   2   4  208.50   26.07
  -8  -2  -4  173.07   33.99
  -8  -2  -4  179.81   34.12
   8   2  -4  190.83   28.82
   8  -2  -4  165.71   22.06
   8  -2  -4  149.38   25.92
  -8  -2   4  206.66   34.66
   8   2   4  168.18   22.75
  -8  -2   4  173.04   25.56
  -8   2  -4  134.85   27.92
  -8   2   5   97.55   15.26
   8   2  -5   90.78   12.93
   8   2  -5  106.78   21.02
  -8  -2  -5   86.06   23.17
   8  -2   5  108.04   13.81
  -8  -2  -5   53.67   23.44
  -8  -2  -5   86.47   28.19
  -8   2   5   54.16   31.94
   8  -2  -5   82.62   18.78
   8   2   5   91.85   13.97
  -8  -2   5   78.54   25.17
   8  -2  -5   93.63   13.12
  -8   2  -5   75.69   20.61
  -8  -2   5  116.30   16.57
   8   2  -6  128.53   26.16
   8  -2   6  128.36   17.87
  -8  -2  -6  113.30   31.78
   8   2  -6  112.87   16.88
  -8   2   6  124.46   18.38
   8  -2  -6  123.87   25.12
  -8   2  -6  133.93   28.38
  -8  -2   6  102.73   35.22
   8  -2  -6  132.68   17.27
  -8  -2   6  140.76   19.69
   8   2   6  115.50   17.78
   8   2  -7    8.01   16.51
  -8   2   7  -12.66   35.75
   8  -2   7   24.26   48.00
   8   2  -7   25.44    6.46
  -8  -2  -7   36.94   22.64
  -8  -2   7   75.98   31.64
  -8  -2   7   39.57    9.95
   8  -2  -7   49.41    8.20
  -8   2  -7  -10.27   19.33
   8  -2  -7   -2.25   16.33
   8  -2   8  109.52   66.81
   8   2  -8   66.82   26.50
  -8  -2  -8   48.19   31.25
  -8  -2  -8   72.13   10.93
   8   2  -8   95.87   13.03
  -8   2   8   52.12   49.44
   8  -2  -8   59.13   23.57
  -8   2  -8  102.82   33.05
   8  -2  -8  103.58   13.24
  -8  -2   8  128.07   19.13
   9   2   0    5.20    2.31
  -9   2   0    7.44    6.39
   9   2   0    3.05    6.19
  -9  -2   0   -0.27    5.92
   9  -2   0    1.26    4.78
   9  -2   0    2.67    1.09
  -9   2   1    5.46    7.54
   9   2  -1    1.46    1.72
   9  -2   1   -0.83    4.27
  -9  -2  -1    3.99    6.94
   9   2  -1    1.97    6.20
   9  -2   1    1.71    1.81
   9  -2   1    2.20    1.67
   9  -2  -1   17.37    7.74
   9  -2  -1    1.51    1.02
  -9  -2   1   -0.45    5.16
  -9   2  -1   -2.03    5.39
   9   2   1    9.59    2.57
  -9  -2  -2   14.33   10.01
   9   2  -2    2.74    6.07
  -9  -2  -2   -2.37    6.14
  -9   2   2   -4.46    3.97
   9   2  -2   -0.75    1.39
  -9  -2  -2   12.72    7.34
   9  -2   2    0.02    1.80
   9  -2  -2    1.71    3.57
  -9   2  -2    0.12    4.42
   9  -2  -2    1.28    1.32
  -9  -2   2   -5.06    3.35
  -9   2   3    4.46    6.06
   9   2  -3    2.26    2.02
  -9  -2  -3   -7.85   10.56
   9  -2   3    3.47    3.06
  -9  -2  -3   -7.19   12.77
  -9  -2  -3    8.60    9.10
   9   2  -3   -7.33    9.48
   9  -2  -3    5.45    3.86
   9  -2  -3    4.50    2.17
  -9  -2   3    1.95    5.59
  -9  -2   3   -4.94   13.29
  -9  -2  -4   -3.36    5.30
   9   2  -4    5.02   13.59
   9   2  -4    5.66    2.61
   9  -2   4    3.53    3.57
  -9   2   4    3.64    6.56
  -9  -2  -4   -9.30   14.90
  -9  -2  -4   11.61   15.95
  -9  -2   4   24.97   21.09
   9  -2  -4    0.35    2.17
  -9  -2   4   14.02    8.31
  -9   2  -4  -16.98    9.32
  -9   2  -4   14.00   14.94
   9   2  -5    7.68    3.19
   9   2  -5    0.57   14.55
  -9  -2  -5   25.94   18.12
  -9  -2  -5  -13.28   21.38
  -9  -2  -5   11.63    7.49
   9  -2   5    7.80    4.72
  -9   2   5    9.69    6.96
  -9   2   5   47.61   30.77
  -9   2  -5    9.47   14.36
   9  -2  -5    3.71    3.05
   9  -2  -5   -6.63   11.65
  -9  -2   5  -36.54   20.44
  -9  -2   5    6.76    6.70
   9   2  -6    2.64    3.01
   9   2  -6   34.21   16.52
  -9  -2  -6    7.13   26.42
   9  -2   6   -1.09    3.40
  -9   2   6   -2.57    3.58
  -9   2   6   -3.71   37.41
  -9  -2  -6   -5.05   21.63
   9  -2  -6    0.15    2.65
  -9  -2   6   -0.21    4.31
  -9   2  -6  -27.15   15.61
  -9  -2   6  -23.18   27.20
   9  -2  -6   15.05   14.06
   9   2  -7   19.34   19.86
  -9  -2  -7   15.92   26.43
  -9  -2  -7   -0.70   31.47
  -9   2   7  -43.36   41.97
   9   2  -7    1.98    3.53
  -9   2  -7   16.85   21.95
   9  -2  -7    2.20    3.15
  -9  -2   7   14.92   35.57
  -9  -2   7    1.76    5.19
   9  -2  -7   17.16   18.13
  10  -2   0  143.09   17.15
 -10  -2   0  199.18   34.39
  10   2   0  112.00   17.86
 -10   2   0  165.97   30.27
  10   2  -1   52.66    6.97
 -10  -2  -1   68.42   17.90
 -10   2   1   41.82   14.08
 -10  -2   1   68.03   17.93
  10  -2  -1   30.49   12.25
  10  -2  -1   44.62    6.06
  10   2   1   37.31    8.98
 -10   2  -1   65.60   19.37
 -10  -2  -2  102.70   24.35
  10   2  -2   88.58   12.60
  10  -2   2  103.87   12.97
 -10   2   2  121.19   23.51
  10  -2  -2  120.02   23.91
  10  -2  -2   88.66   12.16
 -10  -2   2  134.10   24.59
 -10  -2  -3   83.00   21.83
  10  -2   3   84.79   11.01
 -10   2   3  109.83   22.01
  10   2  -3   67.54   10.20
 -10  -2   3  114.22   21.75
  10  -2  -3   97.51   19.89
  10  -2  -3   67.00    9.93
 -10  -2  -4   73.57   25.47
 -10  -2  -4  130.26   27.85
  10  -2   4  139.53   19.04
 -10   2   4  175.11   29.00
  10   2  -4  145.82   18.29
 -10  -2  -4  165.79   36.34
  10  -2  -4  135.43   18.06
 -10  -2   4  152.51   28.07
  10   2  -5   49.43    8.33
 -10  -2  -5   31.98   25.43
 -10   2   5   47.42   13.82
  10  -2   5   40.12    9.45
  10   2  -5   22.52   21.12
 -10  -2  -5   17.18   20.75
 -10  -2   5   44.97   12.92
 -10  -2   5   74.95   31.22
 -10   2  -5   31.62   14.52
 -10   2  -5   86.51   25.49
  10  -2  -5   46.46    7.96
 -10  -2  -6   71.88   34.31
  10   2  -6  104.55   27.97
 -10   2   6   56.31   44.37
  10   2  -6   66.76   10.01
 -10   2  -6   40.66   21.13
 -10   2  -6   67.62   32.67
  10  -2  -6   58.30   21.29
  10  -2  -6   68.29   11.44
 -10  -2   6   45.99   35.19
 -10  -2   6   72.33   17.03
  11  -2   0    0.71    2.06
 -11   2   0    0.24    7.67
 -11  -2   0    1.52    5.07
  11   2   0    5.64    2.87
 -11   2   1   14.59   10.75
 -11  -2  -1   19.21    8.57
  11   2  -1    4.79    2.17
 -11  -2   1    1.12    7.61
  11  -2  -1    5.10    1.80
  11   2   1    3.63    2.98
 -11  -2  -2    3.21    5.48
 -11   2   2   -6.08    5.23
  11   2  -2    2.15    2.03
 -11  -2   2   -0.74    3.76
  11  -2  -2   -0.22    1.39
  11   2  -3    1.25    2.34
 -11  -2  -3   11.64    9.63
 -11   2   3    4.91    6.96
  11  -2  -3    1.06    1.86
 -11  -2   3    6.17    7.92
  11   2  -4    1.73    2.54
  11  -2   4    2.06    3.67
 -11   2   4    0.28    6.26
 -11  -2  -4   -5.56    7.26
 -11  -2  -4   12.13   14.00
  11  -2  -4    2.92    2.33
 -11  -2   4    6.27    6.69
   0   3   0   -0.64    1.19
   0  -3   0    0.90    1.81
   0  -3   0   -0.08    0.82
   0   3   0    1.62    0.99
   0   3  -1    4.90    1.18
   0  -3   1    5.74    1.28
   0  -3   1    3.01    1.77
   0   3  -1    0.68    2.04
   0  -3  -1   -3.06    3.62
   0  -3  -1    2.18    1.28
   0   3  -2    0.35    0.88
   0  -3  -2    7.26    6.05
   0   3  -2    3.00    2.68
   0   3   2   -3.64   12.03
   0  -3  -2    1.49    1.48
   0  -3   2   -0.37    0.84
   0  -3  -2    0.76    1.47
   0  -3   2    3.03    2.99
   0   3   2    0.22    1.25
   0   3  -3    0.89    1.22
   0  -3  -3    2.45    2.06
   0  -3  -3   -5.39    6.46
   0   3  -3   -2.62    3.36
   0   3   3    0.32    1.61
   0  -3  -3   -0.77    1.68
   0  -3   3   -0.01    1.23
   0   3   3   -2.01    7.86
   0  -3   3   -7.88    4.55
   0   3   4   15.31   18.44
   0   3  -4    0.13    5.11
   0   3  -4    7.77    2.29
   0  -3   4    3.86    2.33
   0  -3  -4    1.38    2.27
   0  -3   4    4.11    9.30
   0   3   4    2.37    2.45
   0   3   4    1.85    2.29
   0  -3  -4   12.00    9.40
   0  -3  -5  -13.05   18.57
   0   3   5    0.21    2.23
   0   3  -5    6.24    2.59
   0   3  -5   -5.23    9.61
   0  -3   5   10.87    8.82
   0  -3  -5   -1.41    1.79
   0   3   5  -11.33   12.92
   0  -3   5   -0.41    1.89
   0   3   5    1.78    2.55
   0   3  -6   -2.98   10.02
   0  -3   6  -11.11   23.35
   0   3  -6    0.48    2.13
   0   3   6   -1.43    2.48
   0  -3  -6    7.06    3.57
   0   3   6    7.64    3.95
   0  -3   6    4.39    2.43
   0  -3  -6  -21.39   10.30
   0   3   6  -16.32   20.71
   0   3   7    3.11   21.87
   0   3   7    0.02    2.38
   0  -3   7    1.62    2.54
   0  -3   7   -6.95   15.11
   0   3  -7    1.25    2.37
   0   3  -7   -2.12   20.43
   0  -3  -7    6.47   11.88
   0   3   7    2.12    3.28
   0  -3  -7    2.52    3.16
   0  -3   8    5.43    4.15
   0   3   8    1.28    3.72
   0  -3  -8   -2.00    2.39
   0   3   8   31.68   29.18
   0  -3  -8   -5.39   15.66
   0  -3   8  -17.90   45.50
   0   3  -8   -0.30    2.57
   0   3   8    2.00    3.68
   0   3  -8   -7.08   11.09
   0   3  -9    0.83    3.34
   0  -3   9   -3.61    4.15
   0  -3  -9    6.15    4.57
   0   3   9   -2.81    4.03
   0  -3   9   37.28   51.18
   0   3   9   45.82   62.82
   0   3  -9    9.07   18.41
   0  -3  -9   10.81   22.22
   0  -3 -10   10.56   25.11
   0   3  10   42.97   55.01
   0  -3 -10   10.51    5.02
   0   3 -10   -0.35    3.46
   0  -3  10    3.81    6.75
   0   3 -10   -5.91   28.39
   0  -3  10   72.40   33.40
   0   3  10    8.95    6.32
   0   3 -11   -1.62    3.56
   0   3 -11   -4.20   28.63
   0   3  11   -2.21    4.61
   0  -3  11    8.30   49.04
   0  -3  11   -5.11    5.93
   0  -3 -11    1.68    3.63
   0   3  11    1.34   60.28
   0  -3 -11   27.28   65.25
   1   3   0 1502.91  185.05
  -1   3   0 1483.85  184.50
   1  -3   0 1544.72  184.45
  -1  -3  -1 5812.28  639.10
   1  -3   1 5077.57  637.77
  -1  -3   1 5177.29  637.97
  -1   3  -1 5089.02  637.64
   1  -3  -1 5070.45  640.30
   1  -3   2  126.01   19.50
   1   3  -2  135.69   19.17
   1  -3   2  128.23   17.01
  -1  -3  -2  119.23   17.32
   1   3  -2  129.70   17.03
  -1  -3  -2  179.14   27.60
  -1  -3  -2  122.19   17.95
   1  -3  -2  148.73   22.30
   1   3   2  132.47   17.95
  -1   3  -2  145.33   17.02
  -1  -3   2  182.67   21.60
  -1   3  -2  150.38   19.53
   1   3   2  184.58   34.48
  -1  -3   2  145.74   17.14
   1  -3   3   30.74    5.05
   1   3  -3   41.63    6.06
  -1  -3  -3   32.71    6.19
  -1  -3  -3   35.24    7.72
   1  -3   3   35.45    9.33
  -1  -3  -3   25.47   10.67
   1   3  -3   35.77    8.38
  -1   3   3   70.64   22.62
   1  -3  -3   46.48    6.81
  -1   3  -3   42.32   11.60
   1   3   3   43.92    7.78
   1   3   3   50.01   20.63
  -1  -3   3   33.62    5.20
  -1  -3   3   52.77   13.10
   1  -3  -3   20.26   10.11
  -1   3  -3   33.91    5.02
   1   3   3   28.57    6.23
  -1   3   4  389.04   58.36
  -1  -3  -4  248.82   30.94
   1  -3   4  291.08   37.77
   1  -3   4  219.54   30.54
   1   3  -4  238.66   34.94
   1   3  -4  246.67   30.54
  -1  -3  -4  326.99   50.16
  -1  -3  -4  261.29   32.25
   1   3   4  221.64   31.49
   1   3   4  410.48   61.36
  -1   3  -4  254.28   35.61
   1  -3  -4  267.41   31.10
   1  -3  -4  260.32   37.47
  -1  -3   4  237.25   36.17
  -1  -3   4  233.12   30.64
  -1   3  -4  232.61   30.38
   1   3   4  217.28   30.86
  -1  -3  -5  618.80   76.41
   1  -3   5  582.21   76.18
  -1   3   5  662.47   88.95
   1  -3   5  600.89   83.91
   1   3  -5  706.37   84.95
  -1   3   5  544.48   76.30
  -1  -3  -5  583.62   84.53
   1   3  -5  641.10   76.08
  -1  -3   5  676.27   84.19
  -1   3  -5  538.86   81.03
   1  -3  -5  624.94   76.48
   1   3   5  564.47   76.48
   1   3   5  650.70   77.48
   1  -3  -5  624.78   84.12
  -1   3  -5  643.83   75.97
  -1  -3   5  653.44   76.38
  -1   3   6   43.12   24.49
  -1   3   6   77.91   11.58
   1   3  -6   74.29   11.33
   1  -3   6   78.63   11.55
  -1  -3  -6   90.11   11.88
   1   3  -6   41.25   16.26
   1  -3   6   84.83   26.03
  -1  -3  -6  180.02   38.24
  -1   3   6   93.04   12.06
  -1   3  -6   81.47   11.31
   1   3   6   90.62   12.95
   1  -3  -6   69.89   11.53
   1  -3  -6   95.61   23.97
   1   3   6  136.59   37.47
   1   3   6   81.52   12.04
  -1  -3   6   29.18   17.91
  -1  -3   6   91.20   11.89
  -1   3  -6   87.80   20.42
  -1   3   7  675.88   97.33
  -1   3   7  433.45   50.71
  -1  -3  -7  423.21   50.83
   1   3  -7  403.80   50.35
   1  -3   7  402.90   50.86
   1  -3   7  427.61   64.86
   1   3  -7  327.78   57.76
  -1   3   7  381.83   50.90
  -1  -3  -7  494.83   64.62
   1  -3  -7  403.16   50.80
  -1   3  -7  378.22   58.90
  -1   3  -7  382.62   50.17
   1   3   7  405.82   52.04
  -1  -3   7  393.95   62.88
   1   3   7  367.89   50.91
   1   3   7  483.75   81.26
  -1  -3   7  362.64   50.60
  -1  -3  -8   88.55   14.53
   1   3  -8   54.19   22.74
  -1   3   8  108.91   15.01
   1  -3   8  114.99   20.89
   1   3  -8   92.61   14.45
   1  -3   8  113.52   35.20
  -1   3   8  205.86   48.03
  -1  -3  -8   70.59   26.91
   1  -3   8  105.46   15.06
   1   3   8   27.64   45.11
  -1   3  -8  186.53   42.93
  -1   3  -8  110.20   14.66
   1  -3  -8   64.43   24.05
  -1  -3   8   88.68   33.20
   1   3   8  113.20   16.52
  -1  -3   8  110.24   15.32
   1  -3  -8   97.66   14.74
   1  -3   9  233.35   33.63
  -1   3   9  261.94   86.53
  -1  -3  -9  387.15   78.47
   1   3  -9  232.77   30.14
  -1  -3  -9  216.16   30.23
   1  -3   9  252.76   62.59
  -1   3   9  232.11   30.58
   1   3  -9  160.86   39.35
  -1   3  -9  368.73   66.72
   1   3   9  253.96   32.57
   1  -3  -9  351.83   73.43
   1   3   9  363.38   79.15
   1  -3  -9  212.10   30.39
  -1  -3   9  170.64   48.63
  -1   3  -9  210.95   29.80
  -1   3  10   42.65    9.46
   1   3 -10  -13.75   20.20
  -1  -3 -10   40.29    9.40
  -1  -3 -10  126.05   56.67
   1   3 -10   42.30    9.33
  -1   3  10   60.57   58.57
   1  -3  10   64.33   16.92
   1  -3  10   56.22   59.70
   1  -3 -10   38.10   27.56
  -1  -3  10    8.33   32.36
   1   3  10   41.10   11.89
  -1   3 -10   -0.20   23.50
  -1  -3  10   28.32   11.35
   1  -3 -10   32.81    9.03
  -1   3 -10   36.25    8.39
   1   3  10   45.62   52.63
  -1  -3 -11   88.72   15.56
   1   3 -11   80.16   14.90
   1  -3  11   98.63   50.25
  -1   3  11  -40.69   58.43
  -1  -3 -11    2.31   29.36
   1  -3  11  100.01   23.20
   1   3 -11   77.79   36.09
  -1   3 -11   86.77   14.78
  -1   3 -11   89.36   36.49
  -1  -3  11   99.45   21.53
   1   3  11   87.69   67.62
   1   3  11   77.99   18.13
   1  -3 -11   94.71   44.00
   1  -3 -11   95.42   16.48
  -1  -3  11   69.71   49.95
   2   3   0    0.54    1.86
   2   3   0   -1.35    2.11
   2  -3   0   -0.14    2.30
  -2  -3   0    1.54    2.30
  -2   3   0    1.48    1.58
  -2  -3   0   -0.56    1.92
   2   3   0    2.21    1.09
   2  -3   0    0.16    1.24
  -2  -3   0    1.02    0.79
   2  -3   1   -0.98    1.92
   2  -3   1    1.28    0.78
   2   3  -1    3.97    2.42
   2   3  -1    0.40    0.77
  -2  -3  -1    0.72    1.13
  -2  -3  -1    1.25    1.34
  -2  -3  -1    1.28    2.36
  -2  -3   1    2.65    2.99
   2   3   1    0.14    1.66
  -2   3  -1    1.26    0.76
  -2   3  -1    0.70    1.73
  -2  -3   1    0.46    1.81
   2  -3  -1   -5.04    3.91
   2   3   1    3.06    1.73
  -2  -3   1    0.13    0.74
   2  -3  -1    0.73    1.66
   2  -3   2    4.38    3.83
   2  -3   2    0.89    0.98
  -2   3   2   -4.15    5.77
  -2  -3  -2    0.84    1.42
  -2  -3  -2   -3.41    6.77
   2   3  -2    1.20    1.12
  -2  -3  -2   -0.46    2.47
   2   3  -2   -0.51    2.37
  -2  -3  -2   -0.01    2.52
   2   3   2    1.23    2.82
   2   3   2   12.65    9.17
  -2   3  -2   -0.21    0.80
   2  -3  -2   -3.88    4.52
  -2  -3   2    1.31    1.16
  -2   3  -2   -2.06    2.82
  -2  -3  -3    1.27    7.44
  -2  -3  -3    0.84    2.82
   2   3  -3    2.75    1.56
  -2  -3  -3    1.55    1.64
   2   3  -3   -0.74    3.79
   2  -3   3    0.04    1.21
   2  -3   3   -1.64    4.54
   2  -3  -3   -0.30    1.63
  -2  -3   3   -8.38    4.12
  -2   3  -3    1.93    1.33
   2   3   3    4.32   11.25
  -2   3  -3   -0.58    4.42
   2   3   3    1.38    1.88
   2   3   3    6.79    3.57
   2  -3  -3   -9.54    4.87
  -2  -3   3    3.08    1.68
  -2  -3  -4    4.37    2.69
  -2  -3  -4  -19.68   14.85
   2  -3   4   -0.99    8.80
  -2   3   4  -17.00    8.91
   2  -3   4    1.50    1.81
  -2  -3  -4    1.66    3.36
   2   3  -4    3.81    2.18
   2   3  -4   -3.06    6.02
   2   3   4    0.65    2.93
   2   3   4    4.21    2.68
   2   3   4    0.50   12.30
  -2   3  -4    3.67    5.81
   2  -3  -4   -0.85    6.17
  -2   3  -4    3.39    1.72
  -2  -3   4    2.14    2.06
   2  -3  -4    1.81    2.23
  -2  -3   4    9.87    7.63
  -2  -3  -5    0.83    2.14
   2  -3   5   -9.52   11.65
  -2  -3  -5    2.04   10.89
   2  -3   5    3.30    2.50
  -2   3   5  -15.58   12.84
   2  -3   5   -1.77    3.35
   2   3  -5    0.62    6.02
   2   3  -5    3.77    2.22
   2   3   5   26.62   18.20
   2   3   5    2.91    2.64
  -2  -3   5    8.91   12.96
  -2   3  -5    1.49    1.79
   2   3   5    2.60    3.34
  -2   3  -5   -1.74    7.03
   2  -3  -5    6.67    8.74
   2  -3  -5   -0.53    2.17
  -2  -3   5    0.38    1.74
   2  -3   6   13.77   17.39
  -2  -3  -6   16.88   16.26
   2   3  -6    1.29    7.67
   2   3  -6    3.81    2.75
  -2   3   6  -18.30   13.68
   2  -3   6    1.37    2.74
   2  -3   6    3.06    5.54
  -2  -3  -6    0.62    2.20
  -2   3  -6   -4.40   10.04
   2  -3  -6    6.77    9.32
   2   3   6    0.23    2.51
   2   3   6    8.19    5.70
  -2  -3   6    5.22    3.29
  -2   3  -6    0.61    1.86
  -2  -3   6   -1.60   10.14
   2   3   6   24.70   21.15
   2  -3  -6    0.01    2.08
   2   3  -7    4.14    3.01
   2   3  -7    3.45   11.25
   2  -3   7    9.89    6.61
  -2  -3  -7    4.13    3.32
  -2  -3  -7   22.39   16.78
   2  -3   7   46.31   26.90
   2  -3   7    4.96    3.73
  -2   3   7   15.25   23.01
   2  -3  -7    3.90    3.36
   2   3   7    4.85    3.87
   2  -3  -7   15.73   13.38
  -2   3  -7   10.33   18.77
   2   3   7   11.84   27.27
  -2   3  -7    1.16    2.62
   2   3   7    5.99    5.13
  -2  -3   7   -5.06   14.13
  -2  -3   7    3.26    3.16
  -2   3   8   27.99   28.05
   2  -3   8    6.23    4.54
  -2  -3  -8    2.27    3.55
   2  -3   8   -1.35    5.15
  -2  -3  -8   19.26   16.15
   2   3  -8    2.30    3.46
   2  -3   8    6.69   20.74
   2   3  -8   -1.48   12.98
   2   3   8  -46.44   41.72
  -2   3  -8   -0.75   14.35
   2   3   8   -0.30    4.36
  -2  -3   8   -0.33    3.22
  -2   3  -8    3.62    3.27
   2  -3  -8   -0.02   21.99
  -2  -3   8  -15.93   17.24
   2  -3  -8    3.40    3.55
   2   3   8    2.63    3.58
  -2   3   9   10.46   33.66
  -2  -3  -9   17.29   22.96
   2  -3   9    3.68    6.94
   2   3  -9    4.17    3.41
   2   3  -9   -4.24   13.29
  -2  -3  -9   -2.35    2.78
   2  -3   9    0.87   31.05
  -2   3  -9   26.37   21.85
   2  -3  -9    3.91    4.05
   2  -3  -9    5.56   20.04
  -2  -3   9   18.01   25.07
   2   3   9    0.73    5.12
   2   3   9   -4.31   49.99
  -2   3  -9    1.56    2.87
  -2  -3 -10    4.25    4.02
   2  -3  10   63.78   43.71
   2  -3  10    2.04    6.90
  -2   3  10  -32.86   42.08
  -2  -3 -10   25.68   31.46
   2   3 -10   -1.16    2.80
   2   3 -10   -5.80   17.05
  -2  -3  10  -16.39   32.95
   2  -3 -10    0.29    3.44
  -2   3 -10    7.23    4.24
   2   3  10    5.11    6.84
   2  -3 -10    6.82   23.78
  -2   3 -10  -10.33   20.76
   2   3  10   33.19   55.79
   2  -3  11   26.66   52.88
  -2   3  11   13.39   58.92
  -2  -3 -11    7.78    3.94
  -2  -3 -11   83.12   38.91
   2   3 -11    0.56   35.52
   2   3 -11    2.20    4.21
   2  -3 -11  -11.95   32.17
   2   3  11  -50.13   62.81
  -2  -3  11    2.36   44.41
  -2  -3  11   -1.98    6.07
   2   3  11    9.78    9.02
  -2   3 -11  -35.03   29.38
  -2   3 -11    2.17    3.77
   2  -3 -11    3.39    4.83
  -3  -3   0   71.53   10.16
   3   3   0   65.52   10.07
  -3  -3   0   56.44    7.57
   3   3   0   59.46    7.87
   3   3   0   63.80    9.64
   3  -3   0   64.33    9.65
  -3  -3   0   67.31   11.39
   3   3  -1   50.88    6.69
  -3  -3  -1   52.23    6.79
  -3  -3  -1   69.30   10.56
   3  -3   1   61.98   10.81
   3   3  -1   67.86    9.85
   3   3  -1   58.38    8.43
   3  -3   1   48.98    9.00
  -3   3   1   66.50   10.12
  -3  -3  -1   51.96    6.74
  -3  -3  -1   64.46   11.41
   3  -3   1   51.54    6.54
   3  -3  -1   50.57    9.16
  -3  -3   1   56.08    8.60
  -3  -3   1   45.45    6.58
  -3   3  -1   49.47    7.75
  -3  -3   1   61.50    9.86
   3   3   1   41.19    9.10
   3  -3  -1   58.01    9.59
   3   3   1   38.74    7.16
  -3  -3  -2  264.76   34.99
  -3   3   2  274.50   35.56
  -3   3   2  310.83   40.83
   3  -3   2  263.47   37.27
   3   3  -2  282.10   34.92
  -3  -3  -2  297.69   43.14
   3  -3   2  281.60   38.18
   3   3  -2  252.70   36.70
   3  -3   2  281.21   34.78
  -3  -3  -2  261.21   37.09
  -3   3  -2  288.94   34.65
  -3  -3   2  296.97   34.94
  -3   3  -2  287.13   37.12
   3  -3  -2  312.69   35.50
  -3  -3   2  300.52   37.74
   3   3   2  278.67   36.97
   3   3   2  258.88   35.25
  -3  -3   2  292.06   36.37
   3  -3  -2  312.67   38.14
   3  -3   3 1176.95  137.00
  -3   3   3 1266.10  144.57
   3   3  -3 1108.75  139.81
  -3  -3  -3 1109.06  137.14
   3  -3   3 1057.72  139.67
   3  -3   3 1126.50  141.85
  -3  -3  -3 1212.25  145.42
  -3  -3  -3 1133.11  139.66
   3   3   3 1017.41  147.13
   3   3   3  977.40  138.91
  -3  -3   3 1001.33  141.06
  -3   3  -3 1156.21  140.54
   3  -3  -3 1201.58  141.38
  -3  -3   3 1137.10  138.22
  -3  -3   3 1165.85  137.11
  -3   3  -3 1154.94  136.73
   3   3   3 1086.27  137.45
  -3   3   4  302.52   39.71
   3  -3   4  213.87   27.24
   3   3  -4  215.33   27.21
   3  -3   4  229.85   39.31
   3   3  -4  206.42   31.21
  -3  -3  -4  283.80   44.32
   3  -3   4  222.40   30.29
  -3  -3  -4  235.59   27.45
  -3  -3  -4  216.24   30.02
   3   3   4  225.00   29.59
  -3  -3   4  209.38   27.28
  -3   3  -4  214.87   26.87
   3   3   4  179.06   27.48
   3  -3  -4  212.32   27.49
   3   3   4  229.78   43.55
  -3   3  -4  228.70   32.65
   3  -3  -4  169.70   32.59
   3  -3   5  110.51   23.92
  -3  -3  -5  121.46   18.70
   3   3  -5  112.13   22.38
   3   3  -5  127.30   15.69
   3  -3   5  120.81   15.77
   3  -3   5  130.37   18.79
  -3  -3  -5  152.84   30.94
  -3  -3  -5   99.89   15.46
   3   3   5   91.93   30.92
  -3   3  -5  110.55   15.17
   3   3   5  119.33   18.06
  -3   3  -5   98.31   22.02
   3   3   5  110.11   16.04
  -3  -3   5  116.35   15.76
  -3  -3   5  129.91   24.91
   3  -3  -5  120.11   15.93
   3  -3  -5  200.91   32.03
   3  -3   6  148.70   18.90
  -3   3   6  136.65   34.47
  -3  -3  -6  129.96   18.48
   3   3  -6  184.00   31.56
  -3  -3  -6  142.10   42.50
   3  -3   6   92.69   29.85
   3   3  -6  127.26   18.42
   3  -3   6  134.78   21.50
   3  -3  -6  144.01   18.95
  -3  -3   6  194.32   35.25
  -3   3  -6  142.99   29.21
   3   3   6  146.90   21.12
   3   3   6  143.33   19.20
  -3   3  -6  128.66   18.07
   3   3   6  163.16   52.90
   3  -3  -6  138.08   27.06
  -3  -3   6  145.66   18.85
   3   3  -7  475.76   56.53
  -3  -3  -7  504.61   56.73
   3   3  -7  471.64   64.65
   3  -3   7  381.35   56.58
   3  -3   7  462.00   60.39
  -3   3   7  459.63   82.42
   3  -3   7  484.76   74.22
  -3  -3   7  445.44   56.82
  -3   3  -7  527.15   67.46
   3   3   7  412.53   77.32
  -3  -3   7  411.05   68.79
   3   3   7  408.99   59.15
  -3   3  -7  477.77   56.14
   3  -3  -7  474.70   56.95
   3  -3  -7  388.17   65.70
   3   3   7  390.52   56.92
   3  -3   8  126.53   23.05
   3   3  -8   86.77   13.64
   3  -3   8   80.81   58.93
   3  -3   8  113.49   14.74
   3   3  -8   49.65   18.27
  -3  -3  -8   88.74   13.70
  -3  -3  -8   41.38   27.15
  -3   3   8  114.67   37.08
   3  -3  -8   97.72   16.03
  -3   3  -8   97.63   13.40
   3   3   8  107.61   20.87
   3   3   8   62.50   41.29
  -3   3  -8  131.55   31.74
  -3  -3   8   99.55   16.46
   3  -3  -8   97.79   30.80
  -3  -3   8  105.22   39.45
   3   3   8   85.04   20.87
  -3  -3  -9  144.13   33.93
   3   3  -9  143.30   18.97
  -3  -3  -9  130.38   18.83
   3   3  -9  148.24   36.65
   3  -3   9  194.38   31.45
  -3   3   9   86.84   47.47
   3   3   9  103.50   56.79
   3  -3  -9  130.40   19.25
   3   3   9  138.88   26.13
  -3  -3   9  158.12   19.97
  -3   3  -9  121.81   18.33
  -3   3  -9  107.87   31.32
  -3  -3   9  127.20   36.53
   3  -3  -9   76.88   27.37
   3   3 -10   65.71   12.65
  -3  -3 -10   48.75   31.39
  -3  -3 -10   48.15   11.38
  -3   3  10   30.22   43.95
   3  -3  10   92.00   52.71
   3   3 -10  126.45   40.84
   3  -3 -10   79.97   13.38
   3  -3 -10   83.38   31.87
  -3   3 -10   55.97   11.11
   3   3  10   86.79   18.76
   3   3  10   49.52   58.79
  -3   3 -10   55.31   27.68
  -3  -3  10   -1.75   37.09
  -3   3  11  -46.54   55.65
   3   3 -11   52.35   41.68
  -3  -3 -11   31.02   35.07
  -3  -3 -11   82.20   14.31
   3  -3  11 -236.69  110.13
   3   3 -11   64.79   13.54
  -3   3 -11   82.59   13.89
   3  -3 -11   76.97   14.50
   3  -3 -11   78.20   38.86
  -3  -3  11    9.89   42.86
  -3   3 -11   60.11   38.80
  -4  -3   0   -3.09    2.88
   4   3   0   -2.15    3.44
  -4  -3   0    5.82    4.02
   4  -3   0    3.54    3.86
   4   3   0    7.59    4.18
  -4   3   0   -0.73    3.38
   4   3   0    3.17    1.36
   4  -3   1   -6.03    4.45
  -4  -3  -1  -18.58    9.30
  -4   3   1    0.70    2.80
   4   3  -1    0.98    0.99
   4   3  -1   -0.57    3.38
   4  -3   1    4.66    3.47
  -4  -3  -1    0.62    0.46
   4  -3   1    0.37    0.61
  -4  -3  -1   -1.05    2.93
  -4  -3  -1    1.08    4.08
   4   3  -1   -1.12    2.25
  -4  -3   1    4.60    3.25
   4  -3  -1    1.82    2.59
  -4   3  -1    3.03    2.11
   4   3   1    4.10    2.04
   4   3   1    0.82    2.62
  -4  -3   1    0.49    2.92
   4  -3   2    1.88    3.41
  -4  -3  -2    1.50    1.31
  -4  -3  -2    1.88    1.18
  -4   3   2    6.06    3.50
  -4  -3  -2   -3.98    9.28
   4  -3   2    1.79    1.18
   4   3  -2    3.83    4.06
   4   3  -2    2.81    1.52
  -4   3   2   11.54    8.72
  -4  -3  -2    1.70    3.80
   4  -3   2    9.21    5.94
  -4  -3  -2    0.02    5.87
   4   3   2    5.15    2.13
  -4   3  -2    5.44    4.28
   4  -3  -2   -0.63    1.90
  -4  -3   2  -11.28    3.72
   4   3   2    2.71    3.03
   4  -3  -2   -1.94    3.73
  -4  -3   2    1.25    1.07
  -4  -3   2    0.83    2.67
  -4  -3  -3   -0.81    3.09
  -4  -3  -3    2.65    1.49
  -4   3   3    8.59    9.73
  -4   3   3    0.39    2.27
  -4  -3  -3   -8.73    9.21
   4  -3   3    2.16    1.51
   4  -3   3   -1.16    3.85
   4   3  -3    0.72    1.32
   4   3  -3   -1.04    3.94
  -4  -3  -3    1.06    2.41
   4  -3   3   14.38    9.47
   4   3   3  -15.78   13.05
  -4  -3   3    7.78    6.39
  -4   3  -3   -0.57    0.89
   4  -3  -3    1.38    1.57
  -4  -3   3   -0.77    1.17
  -4   3  -3   12.64    6.39
   4   3   3    1.19    1.99
  -4  -3   3    2.36    2.98
   4  -3  -3   -1.76    5.19
   4   3   3    0.28    2.54
   4  -3   4    1.67    4.00
  -4  -3  -4  -12.79   11.75
   4   3  -4    5.83    6.32
  -4  -3  -4   -0.19    2.88
   4  -3   4    2.12    9.79
   4   3  -4    0.84    1.64
  -4   3   4   -0.59   10.19
  -4  -3  -4    3.28    1.95
   4  -3   4   -0.59    1.52
  -4  -3  -4    1.60    4.02
   4  -3  -4    7.94    6.98
  -4   3  -4    4.77    8.08
  -4  -3   4   -7.19    6.53
  -4  -3   4    0.37    1.68
   4   3   4  -16.18   16.78
   4   3   4    3.58    3.62
  -4   3  -4    1.02    1.24
  -4  -3   4    0.40    2.58
   4  -3  -4    0.57    1.70
   4   3   4   -0.56    1.89
  -4  -3  -5    1.91    2.06
  -4   3   5    0.20   13.54
   4  -3   5    0.66    1.92
   4  -3   5    3.89    5.18
   4   3  -5    0.16    1.68
   4  -3   5   21.25   16.09
  -4  -3  -5  -25.10   11.92
   4   3  -5    0.01    6.84
  -4  -3  -5    4.72    4.79
   4   3   5    2.06    2.55
  -4  -3   5    1.50    2.69
  -4   3  -5    0.33    1.36
   4   3   5   29.18   23.00
   4  -3  -5    0.58    2.08
   4   3   5    1.14    4.50
   4  -3  -5   -3.90    8.01
  -4   3  -5   -3.98    8.17
  -4  -3   5    1.11    2.08
   4   3  -6    3.62    2.77
   4   3  -6   -6.78    7.10
   4  -3   6   -2.21   17.22
  -4  -3  -6    8.94   14.51
   4  -3   6    9.84    6.54
   4  -3   6    0.80    2.33
  -4   3   6    4.28   17.87
  -4  -3  -6    6.11    3.24
   4   3   6  -29.91   22.50
  -4  -3   6   -8.08   11.38
  -4   3  -6    0.02    2.10
   4  -3  -6   -1.57   10.71
  -4   3  -6   -0.89   10.56
  -4  -3   6    5.72    3.33
   4  -3  -6    0.53    2.78
   4   3   6   11.13    4.47
   4   3   6    1.45    4.22
   4   3  -7   -2.49    2.00
   4  -3   7    0.92    2.68
   4   3  -7    2.66   11.91
  -4  -3  -7   -3.67   15.96
   4  -3   7   12.71   24.67
  -4  -3  -7   -0.32    2.18
   4  -3   7   -1.41    4.33
  -4  -3   7    0.02    2.78
   4  -3  -7  -25.91   12.22
   4   3   7   -0.54    2.82
  -4   3  -7   -7.93   13.29
   4  -3  -7   -2.33    2.14
   4   3   7   19.48   30.74
  -4   3  -7   -1.43    1.97
  -4  -3   7   25.76   18.17
   4   3   7   -2.87    3.79
   4  -3   8   -0.33    5.13
  -4  -3  -8    0.54    2.77
  -4  -3  -8   28.06   21.97
   4   3  -8   18.64   17.12
   4  -3   8  -45.82   28.35
  -4   3   8   -7.45   28.43
   4   3  -8    2.77    3.39
  -4   3  -8    5.77    3.35
   4   3   8    2.40    5.78
  -4  -3   8    0.39    3.21
  -4   3  -8   -4.41   14.95
  -4  -3   8   19.78   21.95
   4  -3  -8    4.84   16.54
   4   3   8   43.51   38.24
   4  -3  -8    5.33    3.95
  -4  -3  -9    4.37    3.76
   4   3  -9   -0.07   18.73
  -4  -3  -9   13.20   24.09
   4  -3   9   35.98   40.09
  -4   3   9    5.31   36.69
   4   3  -9    2.80    3.67
  -4   3  -9    0.19   20.44
   4  -3  -9    8.80   19.85
   4   3   9    3.71    5.72
   4  -3  -9    3.11    3.54
  -4  -3   9    4.00   27.36
  -4  -3   9    0.80    4.29
  -4   3  -9    1.57    3.37
   4   3   9   44.84   53.55
   4   3 -10   14.05   22.94
   4  -3  10  -93.02   66.84
   4   3 -10   -0.96    3.14
  -4   3  10    7.67   47.68
  -4  -3 -10   -0.25    3.14
  -4  -3 -10   -4.10   29.02
   4  -3 -10   12.42   26.77
  -4   3 -10    0.01   25.95
  -4   3 -10   10.65    4.40
  -4  -3  10    0.91   38.49
   4  -3 -10    0.66    4.13
   4   3 -11    4.28    4.59
  -4  -3 -11    9.37    4.29
  -4  -3 -11  -41.69   37.57
   4  -3  11  -19.01   68.06
  -4   3  11   28.41   59.70
   4   3 -11  -18.91   27.38
  -4  -3  11   87.84   78.19
   4  -3 -11   -7.09   32.00
   4   3  11   32.45   81.38
  -4   3 -11    0.19    3.33
  -4   3 -11  -68.04   31.59
   4  -3 -11   -3.04    3.37
  -5  -3   0  243.78   34.20
   5   3   0  225.49   33.51
  -5  -3   0  291.34   33.33
   5  -3   0  255.41   33.81
   5   3   0  246.64   31.08
   5   3   0  249.70   33.55
  -5   3   0  248.76   34.25
  -5  -3  -1  625.02   88.17
   5   3  -1  677.37   80.17
   5  -3   1  663.74   83.46
   5   3  -1  648.58   82.69
  -5   3   1  663.04   82.94
  -5  -3  -1  652.42   83.87
  -5  -3  -1  643.21   82.95
   5   3  -1  645.35   82.54
  -5  -3   1  658.55   83.21
  -5  -3   1  670.89   82.35
   5   3   1  660.41   83.32
  -5   3  -1  650.06   83.97
   5  -3  -1  642.70   82.42
   5   3  -2  164.23   22.61
   5  -3   2  126.68   22.89
   5   3  -2  163.93   20.37
  -5  -3  -2  209.66   33.86
  -5   3   2  192.99   29.27
   5  -3   2  166.85   20.16
   5   3  -2  160.05   23.12
  -5   3   2  184.65   22.74
   5  -3   2  184.49   29.61
  -5  -3  -2  169.73   24.34
  -5  -3  -2  157.47   25.53
   5  -3  -2  147.56   21.81
   5   3   2  145.16   23.14
  -5   3  -2  145.61   22.31
  -5  -3   2  157.91   22.85
  -5  -3   2  164.76   23.94
   5  -3  -2  176.61   22.01
  -5  -3  -3  137.10   21.15
   5   3  -3  131.80   16.90
  -5   3   3  170.71   29.85
  -5  -3  -3  120.07   16.80
   5  -3   3  124.56   27.15
  -5   3   3  130.63   18.28
  -5  -3  -3  131.39   16.51
   5  -3   3  121.89   20.02
   5  -3   3  135.71   16.85
   5   3  -3  143.31   20.43
  -5  -3  -3  159.01   29.26
   5  -3  -3  127.04   17.77
  -5  -3   3  140.97   19.19
  -5   3  -3  143.37   21.21
  -5  -3   3  142.95   23.33
   5   3   3  125.32   19.81
   5  -3  -3  126.88   21.44
   5  -3  -3  130.01   17.03
  -5   3   4   51.57    8.63
   5  -3   4   54.60   21.14
   5   3  -4   59.71    8.09
  -5  -3  -4   47.13   18.59
   5  -3   4   47.93    7.92
   5   3  -4   52.85   13.38
  -5  -3  -4   74.30   16.42
  -5   3   4   26.98   16.29
  -5  -3  -4   56.27    7.69
   5  -3   4   65.96   14.98
  -5  -3  -4   82.64   11.75
  -5   3  -4   28.26   11.80
   5   3   4   12.91   21.80
   5  -3  -4   87.59   16.13
  -5  -3   4   59.36    7.84
  -5   3  -4   55.14    7.33
   5  -3  -4   52.20    8.22
  -5  -3   4   59.19   16.78
  -5   3  -4   55.47    9.13
   5   3   4   71.95   15.35
   5   3   4   63.70   10.26
  -5  -3   4   71.07   13.12
  -5  -3  -5  624.62   80.33
   5  -3   5  486.83   86.09
  -5   3   5  756.07   90.01
   5   3  -5  619.28   75.36
  -5  -3  -5  613.23   75.01
   5  -3   5  602.02   75.53
   5   3  -5  616.48   80.30
  -5  -3  -5  710.49   87.07
   5  -3   5  562.42   79.27
   5   3   5  421.97   96.52
  -5  -3   5  588.76   75.19
   5   3   5  575.99   75.97
   5  -3  -5  626.76   75.67
  -5  -3   5  650.28   84.04
   5   3   5  606.66   79.15
  -5   3  -5  604.89   74.65
  -5  -3   5  613.22   76.88
  -5   3  -5  671.53   82.08
   5  -3  -5  615.60   81.00
  -5  -3  -6  101.24   14.40
  -5   3   6  118.85   34.42
  -5  -3  -6  146.45   27.53
   5  -3   6  111.29   15.03
  -5  -3  -6  101.99   30.46
   5   3  -6  108.83   14.74
   5   3  -6   75.87   19.61
  -5  -3  -6  145.50   22.24
   5  -3   6   58.21   26.66
   5  -3   6  161.04   27.91
   5  -3  -6  164.89   29.24
  -5   3  -6   76.30   22.18
   5  -3  -6  120.03   15.30
   5   3   6  125.37   22.21
  -5  -3   6  104.47   14.67
   5   3   6   81.61   39.07
   5   3   6   97.00   15.24
  -5   3  -6  102.34   14.01
  -5  -3   6   96.63   25.67
  -5  -3   6  108.37   15.91
  -5   3   7  114.97   42.64
  -5  -3  -7  114.20   31.04
   5  -3   7  138.08   28.10
  -5  -3  -7  119.48   18.24
   5   3  -7  183.02   29.79
   5   3  -7  145.74   18.93
   5  -3   7  147.77   19.39
   5  -3   7  172.43   43.21
   5   3   7  162.92   23.69
  -5  -3   7  111.80   18.53
   5  -3  -7  142.62   19.23
  -5   3  -7  156.51   33.86
   5   3   7  133.03   19.55
  -5   3  -7  141.77   18.13
  -5  -3   7  139.45   19.76
   5  -3  -7  245.03   37.66
   5   3   7  150.53   52.86
  -5  -3  -8   89.86   33.46
   5   3  -8   70.05   23.31
  -5  -3  -8   79.43   12.00
   5  -3   8   91.00   40.12
  -5   3   8   40.37   37.61
   5   3  -8   86.41   14.16
   5  -3  -8   86.67   12.73
  -5  -3   8   88.10   13.18
   5   3   8  180.74   59.75
  -5   3  -8   71.46   11.57
  -5  -3   8   90.44   14.60
  -5   3  -8  111.06   30.13
  -5  -3   8   58.96   30.36
   5  -3  -8   98.09   29.36
   5   3  -9   72.15   25.77
   5   3  -9   98.48   16.41
  -5  -3  -9   88.89   14.15
  -5   3   9   64.73   47.75
  -5  -3  -9  116.79   36.96
   5  -3   9  107.81   79.01
   5  -3  -9  105.61   17.32
  -5  -3   9  110.94   15.22
  -5  -3   9  106.64   38.74
   5  -3  -9   94.56   25.91
  -5  -3   9  117.03   15.54
  -5   3  -9   62.26   27.54
  -5   3  -9   90.44   13.84
   5   3 -10   44.40    9.89
  -5   3  10  -57.01   47.53
   5  -3  10  149.04   68.46
   5   3 -10   72.32   30.34
  -5  -3 -10   40.62    8.57
  -5  -3 -10   82.80   38.93
  -5   3 -10   38.26    8.18
  -5   3 -10   55.79   32.91
   5  -3 -10   57.34   11.12
  -5  -3  10    7.76   40.09
   5   3  10  -31.61   71.00
   5  -3 -10   17.32   27.82
   6   3   0    1.04    1.40
   6   3   0    8.54    4.10
   6  -3   0    3.08    3.64
  -6   3   0   -0.79    3.55
  -6  -3   0    3.91    5.16
  -6  -3   0    3.07    4.31
  -6  -3  -1    3.17    4.16
   6   3  -1   -8.56    4.69
  -6  -3  -1   -7.84    4.52
  -6   3   1    0.25    3.27
   6  -3   1   -4.50    2.18
  -6  -3  -1   -9.49   12.46
   6   3  -1    0.91    1.11
   6   3  -1   -0.59    2.77
  -6  -3   1   -6.41    4.08
  -6   3  -1    6.01    5.83
   6  -3  -1   -1.78    2.07
   6   3   1   -1.66    2.69
   6   3   1    1.83    1.68
  -6  -3   1    4.00    3.91
   6  -3   2    2.28    1.22
  -6  -3  -2  -10.23   11.80
   6   3  -2   -3.59    5.96
  -6   3   2    2.31    3.69
  -6  -3  -2   -1.52    4.06
   6   3  -2    0.26    2.49
  -6  -3  -2    2.31    7.24
   6   3  -2    3.11    1.60
   6  -3   2    3.14    5.04
  -6  -3   2    4.90    5.04
  -6  -3   2    2.34    6.18
   6   3   2    0.90    1.70
   6   3   2    7.82    4.10
  -6   3  -2   -0.83    4.37
   6  -3  -2   -2.80    2.23
  -6  -3  -3    4.21    4.98
   6   3  -3   -0.03    1.34
  -6  -3  -3   -1.81   12.44
  -6  -3  -3   -1.42   10.68
   6   3  -3   -3.92    5.80
   6  -3   3    2.14   15.18
  -6   3   3   32.36   15.54
   6  -3   3    2.51    1.72
  -6   3   3    1.88    3.48
   6  -3   3    0.55    4.19
   6   3   3   -2.23    2.25
   6  -3  -3    3.60    3.09
  -6   3  -3    8.49    6.60
   6   3   3    2.37    2.36
   6  -3  -3   -0.29    4.88
  -6  -3   3    4.33    4.29
  -6  -3   3   -5.80    7.26
   6  -3  -3    3.63    1.93
  -6  -3  -4    7.83    6.93
   6  -3   4   -1.24    4.28
   6  -3   4    3.50    2.45
  -6   3   4    2.14    3.51
   6  -3   4  -39.48   16.53
   6   3  -4    5.35    2.47
  -6   3   4  -17.73   14.82
  -6  -3  -4    7.84   14.43
  -6  -3  -4    3.06    1.46
   6   3  -4   13.17    7.92
  -6  -3  -4    7.92    2.16
  -6  -3   4   -1.05   10.22
  -6  -3   4    5.93    4.59
   6  -3  -4    3.85    2.56
   6   3   4    2.00    5.11
   6  -3  -4   -0.87    7.33
   6   3   4    0.52    2.53
  -6   3  -4    6.92    8.47
   6  -3   5    9.03    3.61
  -6  -3  -5    2.33    1.74
   6  -3   5  -14.83   22.10
  -6   3   5   -0.24    2.64
  -6   3   5   16.38   20.41
  -6  -3  -5    0.42    6.39
  -6  -3  -5    8.02   15.92
   6   3  -5   -0.02    2.02
   6  -3   5   -0.18    5.91
   6   3  -5    1.36    9.23
  -6  -3  -5    8.74    2.89
  -6  -3   5   10.63   13.77
  -6   3  -5    4.58    1.62
   6  -3  -5   -0.14    2.04
   6   3   5    4.81    6.16
  -6  -3   5    2.59    4.17
  -6   3  -5    2.71    1.53
   6   3   5    5.93    3.61
  -6   3  -5   -7.23   10.00
   6  -3  -5   10.33    9.82
   6  -3   6   -0.62    3.77
  -6   3   6    0.55   23.27
  -6  -3  -6   16.96    4.69
   6  -3   6   -4.99   28.26
   6   3  -6   18.67   10.82
  -6  -3  -6   -4.98    4.79
   6  -3   6    8.25    4.23
  -6  -3  -6    4.79    2.69
  -6  -3  -6   16.55   20.80
   6   3  -6    3.40    3.16
  -6   3  -6   11.92    3.40
  -6   3  -6    4.28    2.32
  -6   3  -6   -1.44   12.16
   6   3   6   12.52   33.22
   6   3   6   -2.76    2.98
  -6  -3   6   11.35    4.57
   6  -3  -6    5.73   10.83
   6  -3  -6   14.44    4.69
   6   3   6    5.74    6.55
  -6  -3   6   16.26   16.78
   6   3  -7   -4.29   12.34
   6   3  -7    5.61    3.69
  -6   3   7  -25.76   25.29
  -6  -3  -7   -7.62   21.31
   6  -3   7    6.52    4.47
  -6  -3  -7    3.50    2.82
   6  -3   7  -12.09   31.63
  -6  -3  -7    6.40    5.41
   6  -3  -7    3.88   13.31
   6   3   7  -11.07   37.68
   6   3   7    3.39    3.86
  -6   3  -7   -0.65    2.01
  -6  -3   7   -1.71    3.21
   6  -3  -7    2.50    3.28
  -6  -3   7    8.97   20.68
  -6   3  -7   -1.58   15.86
   6   3  -8    2.92    3.62
  -6  -3  -8   13.58    7.17
   6  -3   8   27.30   48.22
  -6  -3  -8    4.82    2.94
   6   3  -8  -15.42   13.90
  -6  -3  -8   17.23   25.02
  -6   3   8  -18.69   31.35
  -6  -3   8    2.80    3.71
  -6   3  -8    4.05    2.88
   6  -3  -8   13.47   18.56
   6  -3  -8    1.71    3.55
  -6  -3   8   -2.97   25.37
  -6   3  -8  -12.75   18.60
  -6  -3  -9   -1.14    2.48
  -6  -3  -9   24.06   31.16
   6  -3   9  -55.55   47.95
   6   3  -9    6.40    4.15
  -6   3   9   69.98   44.59
  -6  -3  -9    5.56    6.56
   6   3  -9  -10.59   17.18
   6  -3  -9    6.54   21.73
  -6   3  -9    0.48    2.61
  -6   3  -9   27.56   26.69
   6  -3  -9   -2.11    2.94
   6   3   9  -27.58   55.35
   6   3 -10    2.66   21.87
   6  -3  10   20.99   72.41
  -6   3  10   16.21   50.80
  -6  -3 -10  -46.65   36.45
  -6  -3 -10    4.99    3.55
   6   3 -10   -0.19    3.17
   6   3  10   55.85   74.32
  -6   3 -10  -24.40   30.17
   6  -3 -10    2.82    4.27
  -6   3 -10    7.06    3.95
  -6  -3  10  -28.32   44.74
   6  -3 -10   22.98   24.60
   7   3   0  148.18   19.42
  -7  -3   0  158.43   24.00
  -7  -3   0  155.13   31.63
  -7   3   0  152.82   23.84
   7  -3   0  161.35   22.96
  -7  -3   0  143.04   21.39
   7   3   0  164.11   23.15
  -7  -3  -1  421.72   52.54
   7   3  -1  390.86   53.33
  -7  -3  -1  438.00   55.45
  -7   3   1  396.71   54.13
   7  -3   1  419.98   49.38
   7   3  -1  411.56   52.79
   7   3  -1  411.46   49.90
  -7  -3  -1  405.54   59.13
  -7   3  -1  439.53   55.79
  -7  -3   1  398.10   52.39
  -7  -3   1  399.16   54.42
   7   3   1  366.53   50.59
   7  -3  -1  377.94   52.93
   7   3   1  407.28   54.06
   7  -3   2  196.98   28.45
   7   3  -2  172.43   27.58
   7   3  -2  190.41   23.74
  -7  -3  -2  196.48   29.49
  -7  -3  -2  236.00   37.15
   7  -3   2  176.43   23.52
   7   3  -2  183.51   26.68
  -7  -3  -2  197.28   28.90
  -7   3   2  185.46   27.28
   7   3   2  187.96   27.99
  -7  -3   2  215.15   28.40
  -7  -3   2  176.93   27.87
   7  -3  -2  197.02   23.60
  -7   3   3  388.93   67.11
   7   3  -3  466.71   59.13
  -7  -3  -3  509.80   69.12
   7   3  -3  535.55   63.32
  -7   3   3  460.38   62.09
   7  -3   3  446.46   59.13
   7  -3   3  486.96   64.30
  -7  -3  -3  490.55   65.54
  -7  -3  -3  567.26   67.16
  -7   3  -3  489.47   61.99
  -7  -3   3  513.09   63.00
   7   3   3  428.86   63.26
  -7  -3   3  468.11   64.36
   7  -3  -3  471.26   61.16
   7  -3  -3  511.98   60.75
   7  -3  -3  484.94   59.22
   7   3  -4   20.58   10.83
  -7  -3  -4   -4.62   14.04
  -7   3   4   29.49   20.45
   7  -3   4   27.15    5.39
   7  -3   4   13.31   24.15
  -7  -3  -4   13.27   14.77
   7  -3   4   20.10   11.28
  -7  -3  -4   24.74   10.70
  -7   3   4   31.01    8.61
   7   3  -4   26.82    5.14
   7  -3  -4   18.78    9.16
   7   3   4   15.09    8.19
  -7  -3   4   39.39   10.67
  -7   3  -4   14.87   10.64
   7  -3  -4   24.45    5.23
  -7  -3   4   30.78   14.52
  -7   3   5  152.41   20.77
  -7  -3  -5  149.91   18.18
   7   3  -5  141.61   19.16
   7   3  -5  142.21   25.60
  -7  -3  -5  133.84   33.87
  -7  -3  -5  143.98   18.01
   7  -3   5  157.41   19.64
  -7  -3  -5  171.45   31.20
  -7   3   5  185.69   40.65
  -7   3  -5  160.38   28.72
   7  -3  -5  169.63   27.24
   7   3   5  139.84   19.91
  -7  -3   5  154.67   21.93
   7  -3  -5  124.22   19.18
  -7  -3   5   95.92   28.06
   7   3  -6   85.96   20.95
  -7  -3  -6  101.21   13.17
  -7  -3  -6  108.36   14.36
   7  -3   6  106.65   14.81
  -7  -3  -6  146.24   28.33
  -7  -3  -6  106.55   29.72
  -7   3   6   52.06   30.86
   7   3  -6   98.44   14.17
   7  -3  -6  104.90   14.60
  -7   3  -6  102.98   24.44
  -7  -3   6   92.65   26.94
  -7  -3   6  100.82   16.36
   7   3   6  102.30   15.23
   7  -3  -6   75.91   21.48
  -7  -3  -7  128.20   18.59
   7  -3   7  116.63   18.04
   7  -3   7  125.16   48.47
   7   3  -7  136.30   17.47
  -7   3   7  207.24   47.16
  -7  -3  -7  174.41   40.38
  -7  -3  -7  125.71   16.33
   7   3  -7   97.26   25.25
  -7   3  -7  122.80   16.01
   7  -3  -7  184.84   32.81
  -7  -3   7  151.54   37.21
   7  -3  -7  146.48   17.99
  -7  -3   7  120.85   18.90
  -7   3  -7  100.24   16.73
  -7   3  -7  119.13   29.29
   7  -3   8   48.09   52.31
  -7  -3  -8   12.86    6.89
  -7  -3  -8  -24.46   25.62
   7   3  -8   24.74    6.25
  -7   3   8   48.81   45.88
  -7  -3  -8   26.50    5.29
   7   3  -8   23.34   18.62
  -7  -3   8   20.16   30.10
  -7   3  -8   26.28    5.17
  -7   3  -8   12.14    6.85
   7  -3  -8   36.81    7.86
   7  -3  -8   -1.62   16.88
  -7   3  -8   -0.30   20.06
  -7  -3   8   31.83    8.50
   7   3   8  114.44   59.64
   7   3  -9   55.72   23.86
  -7  -3  -9   61.22    9.01
  -7  -3  -9   36.77   34.43
  -7   3   9  -54.53   51.15
  -7  -3  -9   58.12   15.07
   7   3  -9   62.07   11.91
   7  -3   9  120.72   69.29
   7  -3  -9   79.98   13.46
  -7   3  -9   59.80    9.88
   7  -3  -9   54.36   27.26
   7   3   9   19.42   70.36
  -7   3  -9   75.20   30.70
  -7  -3   9  -51.51   36.77
  -8  -3   0    8.92    6.00
   8   3   0    0.91    1.81
  -8  -3   0    1.32    5.73
  -8   3   0    8.27    7.17
  -8  -3   0   22.71   16.76
   8  -3   0    2.48    5.16
   8   3   0   -3.39    3.58
  -8  -3  -1   -5.55   13.97
   8  -3   1    2.91    4.76
   8  -3   1    0.02    1.15
  -8   3   1   -1.34    3.96
   8   3  -1    0.70    1.52
   8  -3   1    1.80    0.93
   8   3  -1    2.27    4.61
  -8  -3  -1    7.35    6.04
  -8  -3  -1   -0.14    4.60
  -8   3  -1   10.54    7.00
  -8  -3   1    8.40    6.77
   8   3   1    5.39    2.59
   8   3   1   -0.40    3.90
   8  -3  -1   -0.62    3.86
  -8  -3   1   12.12    5.75
  -8   3   2    2.61    5.60
   8   3  -2   10.30    8.64
   8   3  -2    4.40    2.13
   8  -3   2    1.17    4.91
   8  -3   2    3.07    1.76
   8   3  -2   10.97    5.08
  -8  -3  -2   -1.49    6.39
  -8  -3  -2   10.03   14.14
  -8  -3  -2  -10.13    6.83
  -8  -3   2    1.95    5.45
   8   3   2   10.03    3.10
   8  -3  -2    5.39    3.98
  -8  -3   2    3.87    8.20
   8  -3  -2    2.06    1.64
   8   3   2    0.03    5.20
  -8  -3  -3    4.85    6.57
   8  -3   3   -1.41    4.66
   8   3  -3    0.90    1.78
  -8  -3  -3  -10.34   13.79
  -8   3   3   -1.59    4.91
   8  -3   3    1.37    2.02
   8   3  -3    3.66    9.66
  -8  -3  -3    6.06   11.89
  -8  -3   3   -2.98    4.71
  -8   3  -3  -10.01    9.46
   8  -3  -3   -0.38    1.52
   8  -3  -3   -3.80    2.56
   8   3   3   10.34    9.51
  -8   3  -3  -12.74    5.85
  -8  -3   3   11.56   10.90
  -8   3   4   -7.73   21.21
  -8  -3  -4   -0.42   15.57
  -8   3   4    2.95    4.86
   8  -3   4    2.72    2.85
   8   3  -4  -13.69   10.09
  -8  -3  -4   19.46   18.83
   8   3  -4    0.53    2.03
  -8  -3  -4    5.04    7.20
  -8  -3   4   15.67   14.72
   8  -3  -4    4.63    8.11
  -8   3  -4   -6.21    9.04
   8  -3  -4    2.93    2.47
  -8  -3   4    5.88    5.55
   8   3  -5    0.03    2.17
   8  -3   5   32.08   33.08
  -8  -3  -5   -2.04    5.86
  -8   3   5  -15.30   26.16
   8  -3   5   -1.24    2.71
  -8  -3  -5  -13.63   20.80
   8   3  -5  -11.66   11.39
  -8  -3  -5  -14.89   18.40
  -8   3   5   -4.30    2.92
  -8   3  -5   13.73   12.32
   8  -3  -5   -4.27   10.01
  -8  -3   5    5.61   17.18
   8  -3  -5    0.94    2.43
  -8  -3   5    4.72    4.30
  -8   3   6  -23.43   30.05
  -8  -3  -6   -0.05   23.02
  -8  -3  -6   -4.45   21.08
   8  -3   6    1.56    3.93
   8   3  -6   -1.50   13.16
   8   3  -6    7.24    3.41
  -8  -3   6   -5.73   22.75
   8  -3  -6   23.96   13.61
  -8   3  -6    0.54   13.81
   8  -3  -6    3.91    3.19
  -8  -3   6    1.40    5.08
   8   3  -7   -2.94    2.10
   8   3  -7  -11.23   15.08
  -8  -3  -7   -1.47    1.19
  -8   3   7  -16.04   37.94
  -8  -3  -7   -1.75   23.80
   8  -3   7  -33.80   47.69
  -8  -3  -7    0.57    1.28
  -8   3  -7   11.40   18.71
  -8  -3   7   15.30   28.99
   8  -3  -7    2.61    3.52
   8  -3  -7   20.92   16.02
  -8  -3   7    1.28    4.49
   8   3  -8    7.88    3.99
  -8  -3  -8   -0.22    2.17
  -8   3   8    6.88   49.72
   8   3  -8   -1.26   19.65
   8  -3   8   28.67   60.38
  -8  -3  -8    5.62    2.29
  -8  -3  -8   13.42   30.39
  -8  -3   8    1.95    4.94
   8  -3  -8    3.08    3.88
  -8  -3   8   33.62   38.40
  -8   3  -8  -20.13   23.62
   8  -3  -8    4.18   19.05
   9   3   0  157.22   22.40
  -9   3   0  116.41   25.31
   9   3   0  116.38   17.21
  -9  -3   0  163.56   28.07
   9  -3   0  151.85   27.42
   9  -3   1  229.82   28.14
  -9   3   1  293.59   35.63
   9   3  -1  208.10   28.64
   9  -3   1  248.67   34.52
  -9  -3  -1  234.32   36.11
   9   3  -1  219.81   33.03
  -9  -3   1  209.05   34.18
   9  -3  -1  232.08   32.89
  -9  -3  -2   96.13   20.67
   9  -3   2   46.69    7.02
   9   3  -2   98.85   19.69
  -9  -3  -2   70.19   17.96
   9   3  -2   45.25    7.14
  -9  -3  -2   28.45   10.92
  -9   3   2   72.21   15.91
   9  -3  -2   51.65    6.79
  -9  -3   2   62.12   14.37
  -9  -3   2   77.60   18.62
   9  -3  -2   56.37   12.82
   9   3  -3  133.14   24.13
  -9  -3  -3  144.64   26.05
  -9   3   3  156.23   22.88
   9   3  -3  133.77   17.99
  -9  -3  -3  124.50   28.53
   9  -3   3  140.26   18.19
  -9  -3  -3  137.50   28.65
  -9  -3   3  161.65   28.12
   9  -3  -3  135.50   17.84
  -9  -3   3  202.46   31.47
   9  -3  -3  128.15   20.81
  -9  -3  -4  135.40   27.12
  -9  -3  -4   54.46   23.20
  -9  -3  -4   92.40   25.61
   9   3  -4   78.84   21.73
   9   3  -4   66.57   11.62
  -9   3   4  116.24   21.25
   9  -3   4   98.04   12.45
  -9  -3   4   72.52   23.20
  -9   3  -4   90.25   17.24
   9  -3  -4   89.70   11.85
  -9  -3   4  120.39   21.84
  -9   3  -4   89.86   21.99
  -9  -3  -5   60.95   27.33
   9   3  -5  102.10   15.04
   9  -3   5  118.71   15.88
   9   3  -5  144.53   26.66
  -9  -3  -5  122.84   28.21
  -9  -3  -5  135.06   33.78
  -9   3   5   47.66   36.92
  -9  -3   5  118.39   23.31
  -9  -3   5  113.44   31.73
  -9   3  -5   88.61   21.66
   9  -3  -5  118.69   15.25
   9  -3  -5  116.11   21.46
  -9  -3  -6   11.53   23.11
   9  -3   6    7.70    5.27
  -9   3   6   37.94   38.97
   9   3  -6    1.70   16.79
   9   3  -6   19.07    4.84
  -9  -3  -6   44.16   30.91
  -9  -3   6   28.11   27.51
  -9   3  -6   23.38   16.83
   9  -3  -6   20.17    5.15
  -9  -3   6   13.36    7.96
   9  -3  -6    4.79   14.56
  -9  -3  -7   -0.50   28.20
   9   3  -7   64.99   10.55
   9  -3   7   56.22   58.16
  -9   3   7   65.73   50.01
  -9  -3  -7   68.08   39.84
   9   3  -7   46.32   23.19
  -9  -3   7   70.21   15.45
  -9   3  -7    6.83   21.60
   9  -3  -7   59.32   10.62
  -9  -3   7   40.81   37.73
   9  -3  -7   21.00   20.44
 -10  -3   0    8.85    9.40
  10   3   0   11.04    3.37
  10   3  -1    1.69    2.03
 -10   3   1    7.14    7.69
 -10  -3  -1    1.22    6.69
  10  -3   1    1.95    1.76
  10  -3  -1   -1.00    3.54
 -10  -3   1    9.38    6.56
  10   3   1    3.16    2.72
 -10   3   2   15.91    8.66
 -10  -3  -2    1.11    7.72
  10  -3   2   -1.50    2.13
  10   3  -2   -1.72    1.72
  10  -3  -2   -0.11    1.23
 -10  -3   2    9.59    9.11
  10  -3  -2    2.50    6.12
 -10  -3  -3   11.15   14.65
  10   3  -3   -0.35    1.84
 -10   3   3    6.12    7.04
  10  -3   3    0.68    2.60
 -10  -3  -3    5.52    9.53
 -10  -3  -3    3.13   10.05
  10  -3  -3   -3.31    3.30
 -10  -3   3   -2.55    5.47
  10  -3  -3    2.15    1.93
 -10  -3  -4    5.48   10.45
  10   3  -4    5.47    2.89
 -10  -3  -4    3.19   17.58
  10   3  -4  -18.04   14.37
  10  -3   4    5.47    4.11
 -10  -3  -4  -20.60   15.75
 -10  -3   4    9.02    7.37
  10  -3  -4    1.60    2.47
 -10  -3   4   -4.92   20.66
 -10  -3  -5    3.55   21.64
  10  -3   5   -0.43    3.57
 -10  -3  -5    9.66   23.82
  10   3  -5  -13.16   18.24
  10   3  -5    0.37    2.49
 -10  -3  -5   -4.03    8.61
  10  -3  -5   -0.82    2.07
 -10  -3   5    4.52    6.51
 -10   3  -5   24.23   20.70
 -10  -3   5  -25.02   25.10
 -10   3  -5   -4.78   12.52
  10   3  -6    3.89    3.34
 -10  -3  -6  -21.90   31.82
  10   3  -6  -23.01   21.55
 -10   3  -6   33.75   28.95
 -10  -3   6   -3.49    4.39
 -10   3  -6    3.10   16.34
  10  -3  -6   -2.08   16.16
 -10  -3   6   -8.23   35.01
  10  -3  -6    0.66    2.79
 -11  -3   0   43.10   15.57
  11   3   0   34.63    8.05
 -11  -3  -1  100.92   26.66
  11   3  -1   74.05   10.91
  11  -3  -1   69.11    9.24
 -11  -3   1  120.93   24.48
 -11  -3  -2   66.80   18.94
  11   3  -2   30.28    6.13
  11  -3  -2   27.13    4.16
 -11  -3   2   26.95   12.36
 -11  -3  -3   71.37   20.16
  11  -3   3   65.39   10.80
  11   3  -3   65.21    9.04
  11  -3  -3   54.18    8.23
 -11  -3   3   94.04   22.53
  11  -3  -3   56.90   18.49
  11   3  -4   27.64    5.61
 -11  -3  -4    8.94   16.84
 -11  -3  -4   35.68   18.54
 -11  -3  -4    1.55   14.50
  11  -3   4   12.74    5.94
  11  -3  -4   30.59    5.59
 -11  -3   4   33.12   11.89
   0   4   0   43.08    7.76
   0  -4   0   29.15    4.81
   0  -4   0   42.92    7.36
   0   4   0   35.57    5.70
   0   4  -1  978.26  124.21
   0  -4   1 1040.51  124.40
   0   4   2 1300.99  185.10
   0  -4   2 1580.14  180.99
   0   4   3  571.65   76.85
   0  -4  -3  526.43   67.29
   0   4  -3  543.13   66.84
   0   4  -3  541.53   69.97
   0  -4  -3  582.80   74.62
   0  -4   3  572.26   70.94
   0  -4   3  549.24   66.94
   0  -4  -3  535.99   67.34
   0   4   3  534.74   67.21
   0  -4   4 1379.38  168.03
   0  -4  -4 1368.99  168.40
   0   4   4 1350.98  168.30
   0  -4   4 1415.91  173.50
   0   4  -5  415.05   50.20
   0   4   5  490.53   67.24
   0  -4  -5  395.69   50.73
   0  -4   5  402.49   57.53
   0  -4   5  380.32   50.37
   0   4   5  404.68   50.77
   0  -4   6  403.74   50.28
   0   4   6  385.90   50.54
   0  -4   6  416.47   60.69
   0   4  -6  427.08   57.50
   0   4   6  288.43   64.13
   0   4  -6  409.61   49.89
   0  -4  -6  404.84   50.47
   0  -4  -6  382.93   60.12
   0   4  -7  116.74   28.20
   0   4   7  129.69   18.69
   0  -4  -7   81.50   24.55
   0  -4  -7  134.19   18.50
   0   4  -7  145.71   18.08
   0  -4   7  104.40   30.87
   0   4   7  157.32   42.17
   0  -4   7  142.27   18.54
   0   4   8  131.29   47.80
   0   4  -8  177.35   37.19
   0  -4   8  216.04   27.67
   0  -4  -8  330.91   62.87
   0   4  -8  201.60   26.88
   0   4   8  191.17   27.63
   0  -4   8  266.69   61.37
   0  -4  -8  214.96   27.61
   0   4  -9  111.70   28.41
   0   4   9   50.35   46.53
   0  -4  -9  110.14   16.08
   0   4  -9   95.36   15.18
   0  -4   9  115.03   39.68
   0   4   9  131.17   17.05
   0  -4  -9   63.71   25.24
   0  -4 -10  124.78   19.17
   0   4  10  135.01   20.34
   0  -4  10  199.25   52.43
   0  -4  10  165.11   28.21
   0  -4 -10   87.05   35.20
   0   4  10  101.75   55.82
   0   4 -10  237.32   65.33
   0   4 -10  123.76   18.47
   0  -4 -11   54.51   32.15
   0  -4 -11   27.82    8.51
   0   4  11   44.33   68.14
   0   4 -11   21.53    6.98
   0  -4  11   46.41   14.42
   0   4  11   41.29   11.07
   0  -4  11    6.68   46.83
   0   4 -11   39.58   38.22
   1   4   0    1.15    2.32
   1  -4   0    2.72    1.55
  -1   4   0    1.71    1.88
   1  -4   0    4.00    2.38
  -1   4   0    3.04    1.63
  -1  -4   0    4.72    1.51
   1   4   0    5.39    1.71
  -1  -4   0    1.23    1.96
   1   4  -1    5.38    2.64
   1   4  -1    0.80    0.82
  -1  -4  -1   -0.56    1.26
   1  -4   1    0.14    1.73
  -1  -4  -1   -0.68    1.38
  -1  -4  -1   -4.46    2.40
   1  -4   1   -0.73    0.70
   1   4   1    1.82    1.88
   1   4   1    0.89    2.45
  -1   4  -1    2.15    2.01
  -1  -4   1    3.41    3.03
   1  -4  -1   -1.97    2.17
  -1  -4   1   -1.08    0.67
   1   4   1   -0.09    1.56
  -1   4  -1   -0.81    0.85
   1   4  -2    0.09    0.86
   1   4  -2    0.64    2.36
  -1  -4  -2    3.91    7.88
   1  -4   2    0.57    0.92
  -1  -4  -2    0.99    2.00
  -1  -4  -2    0.28    1.50
   1  -4   2   -2.91    2.54
   1  -4  -2   -2.11    6.17
  -1  -4   2    2.21    2.38
   1   4   2   -1.36    1.45
   1   4   2   -2.58    6.79
  -1  -4   2    0.03    0.87
  -1   4  -2    1.41    2.74
  -1   4  -2    0.07    0.87
  -1   4   3  -23.77    7.14
  -1  -4  -3   -0.21    1.66
   1  -4   3    0.09    1.26
   1  -4   3   -4.93    3.93
   1   4  -3    0.69    1.31
  -1  -4  -3    0.16    2.44
  -1  -4  -3   -8.66    7.74
   1   4  -3   -2.22    3.40
   1  -4  -3   -0.39    1.61
   1   4   3   -0.28   12.78
   1  -4  -3   -0.82    6.22
  -1   4  -3   15.76    7.11
  -1  -4   3   -5.35    3.72
   1   4   3    2.58    2.59
  -1   4  -3   -0.64    1.09
  -1  -4   3   -0.59    1.02
  -1  -4  -4   13.34   11.01
   1   4  -4    0.43    5.08
  -1   4   4   11.02   21.77
  -1  -4  -4    3.09    2.49
   1  -4   4    0.46    9.79
   1  -4   4    0.70    1.54
  -1  -4  -4   -3.81    1.85
   1   4  -4   -0.81    1.32
  -1   4  -4   -4.33    4.76
   1   4   4    3.38    2.91
  -1   4  -4    0.43    1.35
   1   4   4   -8.20   12.03
  -1  -4   4   -3.18    7.80
   1  -4  -4  -16.35    7.63
   1  -4  -4   -0.19    2.05
  -1  -4   4    1.04    1.93
   1   4  -5   -0.52    6.64
  -1   4   5   12.76   15.93
  -1  -4  -5   -0.35    2.45
   1   4  -5    2.53    2.35
   1  -4   5   -4.24    8.41
  -1  -4  -5   -6.98   19.95
   1  -4   5    3.53    2.57
   1   4   5  -12.61   14.93
   1   4   5    2.78    2.64
  -1  -4   5   -3.37    7.86
  -1  -4   5    0.84    2.20
   1  -4  -5   10.33    9.79
  -1   4  -5   -6.89   11.74
   1   4   5   -2.30    2.40
  -1   4  -5    2.00    1.86
   1  -4  -5    5.12    3.22
   1   4  -6    4.15    2.39
   1  -4   6    2.14    2.70
  -1  -4  -6   11.62   11.27
  -1   4   6  -12.37   20.32
   1   4  -6    7.99   11.48
   1  -4   6  -13.14    9.63
  -1  -4  -6   -1.23    1.92
   1   4   6    3.83   20.32
   1   4   6    0.85    2.85
   1   4   6    2.34    2.57
  -1   4  -6   12.30   13.59
   1  -4  -6   -2.19    1.87
  -1  -4   6   -8.40    9.88
  -1  -4   6    0.59    2.40
  -1   4  -6    0.86    2.10
   1  -4  -6   -1.50   11.64
  -1   4   7    2.51    2.93
  -1  -4  -7   37.12   23.25
  -1   4   7   -2.35   23.74
   1   4  -7    8.23   11.24
   1   4  -7    4.09    3.28
   1  -4   7    4.56    3.65
   1  -4   7   -5.73   12.76
  -1  -4  -7    4.56    3.85
   1   4   7    5.63    4.82
   1   4   7   16.05   22.44
   1  -4  -7    2.13    3.37
  -1   4  -7   14.65   12.19
  -1  -4   7   -8.58   14.17
  -1   4  -7   10.65    3.90
  -1  -4   7    3.20    3.30
   1   4   7    7.73    4.41
   1  -4  -7   -9.59   11.41
  -1  -4  -8    2.78    3.41
  -1   4   8   20.89   29.11
  -1   4   8    3.75    3.46
  -1  -4  -8   10.18   19.42
   1   4  -8    7.76   14.95
   1   4  -8    3.31    3.38
   1  -4   8    2.58    6.21
   1  -4   8   -1.85    2.75
   1  -4   8   13.29   19.89
   1  -4  -8    0.05    2.90
  -1  -4   8    1.68   13.11
   1  -4  -8   -1.11   22.43
   1   4   8   44.85   36.02
  -1   4  -8  -17.06   13.94
  -1   4  -8    7.15    3.59
  -1  -4   8    0.59    3.14
   1   4   8    0.89    3.48
   1   4   8    3.07    4.39
   1  -4   9   14.93    7.26
   1  -4   9   -6.22   27.69
  -1   4   9   70.21   41.27
  -1   4   9    1.92    3.93
   1   4  -9    3.71   21.41
   1   4  -9    0.52    3.48
  -1  -4  -9   -8.34   21.68
  -1  -4  -9    7.46    4.61
   1   4   9   46.71   39.46
   1  -4  -9    0.61    3.23
   1  -4  -9   -6.78   21.49
   1   4   9    0.82    5.01
  -1   4  -9  -14.90   25.11
  -1  -4   9  -20.20   30.24
  -1   4  -9    6.42    4.10
  -1  -4 -10    0.92   24.95
   1  -4  10    2.09    7.77
   1  -4  10  -19.99   32.82
   1   4 -10    1.38    3.24
  -1   4  10    3.12    4.19
  -1   4  10   44.40   96.21
   1   4 -10   22.85   30.59
  -1  -4 -10    1.87    3.68
  -1  -4  10  -28.68   29.95
   1   4  10    0.32    5.20
  -1   4 -10  -16.74   18.96
  -1   4 -10   -0.63    2.80
   1  -4 -10   23.10   26.59
   1  -4 -10   10.99    5.53
   1   4  10  -21.15   45.03
  -1   4  11   -0.26    3.37
   1   4 -11  -20.18   25.97
   1  -4  11   38.81   47.85
  -1  -4 -11   18.02   30.08
   1   4 -11    2.85    4.35
  -1   4  11  -74.61   61.86
  -1  -4 -11    2.79    4.43
  -1  -4  11    4.60    7.60
   1   4  11   64.41   93.46
  -1   4 -11    5.46    4.44
  -1   4 -11   -2.74   40.87
  -1  -4  11   13.51   40.96
   1   4  11    1.02    5.72
   1  -4 -11   83.71   38.09
   1  -4 -11    7.36    4.54
  -2   4   0 1439.07  183.65
  -2  -4   0 1547.35  184.13
   2  -4   0 1544.97  183.53
   2   4   0 1475.46  184.75
   2   4  -1   59.60    9.53
   2   4  -1   46.75    5.62
   2  -4   1   42.52    5.52
  -2  -4  -1   56.31    8.91
  -2  -4  -1   42.91    6.10
   2  -4   1   42.08    7.42
  -2  -4   1   48.92    8.75
   2   4   1   26.38    6.66
  -2  -4   1   35.45    5.43
   2  -4  -1   49.15    8.33
   2   4   1   37.31    8.91
   2  -4  -1   51.58   12.12
   2   4   1   49.50    9.18
  -2   4  -1   29.88    6.58
   2  -4   2 1047.75  129.35
   2   4  -2 1006.61  128.68
  -2   4   2 1012.18  133.11
  -2  -4  -2 1016.01  128.30
  -2  -4  -2 1016.14  127.03
  -2  -4  -2 1073.14  135.32
  -2  -4   2 1021.23  129.67
  -2   4  -2 1084.13  128.82
   2   4   2 1036.74  128.19
   2  -4  -2 1103.83  131.68
  -2  -4  -3  414.30   58.89
   2   4  -3  403.22   52.65
  -2  -4  -3  388.86   51.46
   2  -4   3  442.58   54.42
   2  -4   3  406.91   49.63
   2   4  -3  416.43   49.69
  -2  -4  -3  433.40   50.17
  -2  -4   3  386.05   53.33
  -2   4  -3  391.41   49.46
  -2   4  -3  376.61   52.67
   2  -4  -3  438.74   56.06
   2   4   3  398.77   51.25
  -2  -4   3  396.88   49.72
   2   4   3  359.59   60.36
   2  -4  -3  381.64   49.96
  -2   4   4 1081.39  145.51
  -2  -4  -4 1078.12  135.90
   2  -4   4 1091.34  135.57
   2   4  -4 1166.50  139.78
   2  -4   4 1155.15  141.83
  -2  -4  -4 1189.29  145.48
  -2  -4  -4 1119.01  137.75
   2   4   4 1160.15  149.57
  -2  -4   4 1061.55  135.63
   2  -4  -4 1168.72  142.52
   2   4   4 1005.75  135.99
   2  -4  -4 1133.80  136.03
  -2  -4   4 1136.34  141.05
   2   4   4 1078.84  137.21
  -2   4  -4 1172.46  135.38
  -2   4  -4 1050.17  139.63
  -2  -4  -5  348.15   45.52
  -2  -4  -5  435.74   56.34
  -2   4   5  433.56   65.92
  -2  -4  -5  322.90   43.32
   2   4  -5  357.04   43.08
   2   4  -5  353.48   48.50
   2  -4   5  326.99   43.12
   2  -4   5  473.51   58.95
   2   4   5  308.40   44.51
   2   4   5  299.36   43.46
   2   4   5  282.01   60.89
   2  -4  -5  369.19   51.90
  -2   4  -5  352.73   48.94
  -2   4  -5  359.20   42.85
   2  -4  -5  337.69   43.53
  -2  -4   5  342.67   43.27
  -2  -4   5  417.02   51.92
   2   4  -6  486.37   57.05
  -2  -4  -6  413.07   67.64
   2  -4   6  436.95   57.16
  -2  -4  -6  451.62   57.30
  -2   4   6  523.02   75.42
   2  -4   6  526.55   68.80
   2   4  -6  439.86   63.24
  -2   4  -6  461.76   56.71
   2  -4  -6  471.26   66.66
   2   4   6  435.54   58.68
  -2  -4   6  462.64   57.33
  -2  -4   6  482.72   67.08
   2   4   6  408.85   78.64
   2   4   6  411.37   57.50
  -2   4  -6  483.05   64.37
   2  -4  -6  461.52   57.48
   2   4  -7  199.11   27.12
  -2  -4  -7  213.82   27.57
   2   4  -7  185.30   35.03
   2  -4   7  212.35   30.87
  -2   4   7  189.06   48.81
  -2  -4  -7  284.20   51.63
   2  -4   7  199.66   27.48
   2  -4   7  214.75   47.38
  -2  -4   7  220.80   27.76
   2  -4  -7  210.48   27.75
   2  -4  -7  151.24   36.35
  -2   4  -7  182.97   35.09
   2   4   7  200.60   51.02
  -2  -4   7  265.02   46.10
  -2   4  -7  204.22   26.94
   2   4   7  206.34   27.97
   2   4   7  235.23   29.61
   2  -4   8  284.47   36.53
  -2   4   8  151.64   51.84
   2   4  -8  218.13   42.38
   2  -4   8  416.38   73.90
   2   4  -8  300.73   36.08
  -2  -4  -8  286.22   36.36
   2  -4   8  305.01   40.21
  -2  -4  -8  463.42   73.01
   2   4   8  259.49   37.85
  -2   4  -8  296.47   49.76
   2   4   8  219.65   63.98
   2   4   8  243.07   36.46
  -2  -4   8  278.30   36.49
   2  -4  -8  271.06   36.44
  -2   4  -8  290.07   35.70
  -2  -4   8  317.90   56.66
  -2   4   9   46.64   36.49
   2   4  -9   10.09   20.15
  -2  -4  -9   38.71   21.19
   2  -4   9   77.10   37.39
   2  -4   9   25.50   12.22
   2   4  -9   39.12    8.32
  -2  -4  -9   43.97    9.17
  -2   4  -9   23.99   20.33
  -2   4  -9   40.85    8.45
   2  -4  -9   38.67   21.77
   2  -4  -9   46.40    9.54
   2   4   9   29.03   10.98
  -2  -4   9   76.21   32.15
   2   4   9   43.14   42.22
  -2   4  10  137.69   66.08
   2  -4  10   91.48   23.75
   2   4 -10   68.86   29.06
  -2  -4 -10   75.19   14.72
   2   4 -10   93.21   13.37
   2  -4  10    5.74   39.13
  -2  -4 -10   44.76   33.05
  -2   4 -10   82.37   14.23
  -2   4 -10   53.48   27.39
   2   4  10   92.89   60.27
   2   4  10  113.81   21.21
   2  -4 -10   96.26   15.81
  -2  -4  10   40.81   33.45
   2  -4 -10   84.99   33.82
  -2  -4 -11   45.45    9.70
  -2   4  11   37.72   58.21
   2   4 -11   88.03   34.83
   2   4 -11   33.47    8.58
   2  -4  11  -10.61   44.50
  -2  -4 -11   24.21   46.52
  -2  -4  11   31.46   47.80
  -2   4 -11   36.10    9.12
  -2   4 -11   32.96   29.91
   2   4  11   27.29   12.44
   2   4  11   43.63   63.46
   2  -4 -11   69.25   48.81
  -2  -4  11   51.00   13.45
   2  -4 -11   47.24   10.05
  -3   4   0    1.04    2.11
   3   4   0    1.86    1.33
   3   4   0    2.57    2.95
   3  -4   0    3.68    1.77
  -3  -4   0    0.27    3.19
  -3  -4   0    2.85    1.01
   3  -4   0    0.97    2.60
  -3  -4   0    3.24    2.66
   3   4   0   -4.70    2.49
   3  -4   1    2.48    2.83
  -3  -4  -1    1.35    1.23
  -3  -4  -1    0.23    1.16
  -3  -4  -1    0.86    2.52
  -3  -4  -1   -0.43    3.81
   3   4  -1    1.67    3.43
   3  -4   1   -0.22    0.77
   3   4  -1    0.14    0.92
   3  -4   1    3.33    3.00
  -3  -4   1    0.22    0.85
   3   4   1    0.00    1.48
  -3  -4   1   -2.06    2.49
   3   4   1   -3.26    1.47
  -3  -4   1    0.53    2.61
  -3   4  -1   -2.72    2.00
   3  -4  -1    0.82    2.32
   3  -4  -1    3.25    2.58
   3  -4  -1   -6.61    4.56
  -3  -4  -2   -3.11    5.39
   3  -4   2    2.88    4.51
  -3  -4  -2    2.17    2.25
   3  -4   2   -2.47    2.44
   3   4  -2    1.21    1.24
  -3  -4  -2   -0.31    1.34
  -3   4   2   -4.76    8.37
  -3  -4  -2    7.87   10.69
   3   4  -2    1.68    3.23
  -3  -4  -2   -0.02    2.62
   3  -4   2    2.30    1.17
   3  -4  -2   -4.62    5.47
  -3  -4   2    5.44    3.76
  -3  -4   2   -1.95    1.92
   3   4   2    1.28    3.27
  -3   4  -2    3.38    3.49
   3  -4  -2    1.93    2.00
  -3   4  -2    3.30    1.31
  -3  -4   2    2.67    1.45
   3  -4   3    1.42    1.68
  -3  -4  -3    3.34   12.12
   3   4  -3    2.52    1.77
   3  -4   3   -2.12    4.00
  -3   4   3   -4.17    9.63
  -3  -4  -3    0.26    3.23
   3  -4   3   -0.92    5.89
  -3  -4  -3   -0.78    3.25
   3   4  -3   -4.17    3.60
  -3  -4  -3    0.50    1.93
   3  -4  -3   -1.17    5.88
   3   4   3    0.75    3.01
  -3  -4   3   -1.43    1.41
  -3   4  -3    2.44    1.58
   3   4   3   -6.48   13.54
  -3   4  -3    3.32    4.68
  -3  -4  -4   -3.14   11.33
   3  -4   4   -0.21    1.49
  -3   4   4   10.42   11.19
   3   4  -4   -0.23    1.41
   3  -4   4   -0.97    9.51
   3  -4   4    3.82    4.18
  -3  -4  -4    0.41    1.81
  -3  -4  -4   -2.80    2.61
   3   4  -4    4.52    5.22
   3   4   4   14.37   15.97
   3   4   4    0.39    2.74
  -3  -4   4    0.75    1.82
   3   4   4   -0.10    2.15
  -3  -4   4  -12.38    6.02
   3  -4  -4    0.26    7.45
  -3   4  -4    1.23    1.40
   3  -4  -4   -0.31    1.78
  -3   4  -4   -0.68    5.45
   3   4  -5   -1.20    1.35
  -3  -4  -5  -22.42   16.45
   3  -4   5   -1.63    1.38
  -3  -4  -5    1.97    3.70
   3  -4   5   -2.04    3.15
   3  -4   5    8.19    9.98
  -3  -4  -5   -0.04    2.00
   3   4  -5    3.65    6.91
   3   4   5   10.04   19.67
  -3  -4   5    4.29    7.32
  -3  -4   5    2.27    2.18
  -3   4  -5   -0.27    1.47
   3  -4  -5    5.94    8.79
  -3   4  -5   -5.23    8.24
   3  -4  -5    1.26    2.36
   3   4   5   -0.33    1.96
   3   4   5    0.24    3.25
   3   4  -6   -1.86    8.37
   3   4  -6    0.18    2.30
   3  -4   6   11.23   11.89
  -3   4   6   56.18   21.58
   3  -4   6   13.36    5.80
  -3  -4  -6    1.35    2.50
   3  -4   6    0.63    2.59
  -3  -4  -6  -14.17   13.12
   3  -4  -6   -0.49    1.98
   3  -4  -6   20.69   13.44
   3   4   6  -15.78   20.64
  -3  -4   6    4.69   12.50
  -3   4  -6   -0.53    8.93
   3   4   6    2.13    2.94
  -3  -4   6   -1.73    1.90
  -3   4  -6    3.71    2.50
   3   4   6   -2.46    2.73
   3   4  -7    3.10    3.29
   3   4  -7   16.36   10.42
  -3   4   7   25.35   22.80
   3  -4   7    1.19   19.06
  -3  -4  -7  -22.73   15.63
   3  -4   7    6.88    4.30
  -3  -4  -7    2.21    3.36
   3  -4   7    1.51    5.64
  -3  -4   7    3.36    4.02
  -3  -4   7  -10.18   12.35
  -3   4  -7   -1.40   13.02
  -3   4  -7    2.23    2.70
   3   4   7    5.69    4.72
   3   4   7   21.56   26.83
   3  -4  -7    1.76    3.15
   3   4   7   -0.84    4.56
   3  -4  -7    7.62   14.21
   3  -4   8    2.58    3.17
  -3   4   8  -10.40   28.08
   3   4  -8    4.35    3.55
  -3  -4  -8    1.84    3.39
   3  -4   8   10.04    8.20
  -3  -4  -8   -2.92   17.23
   3   4  -8    5.17   13.73
   3  -4   8    2.36   37.79
  -3   4  -8   -0.51    2.36
  -3   4  -8   -0.43   17.39
   3   4   8    0.27    4.73
   3  -4  -8   -0.50    2.96
  -3  -4   8   -2.26    3.00
  -3  -4   8   18.66   15.18
   3   4   8   12.13   32.78
   3  -4  -8   -2.96   13.76
  -3  -4  -9   14.42   25.11
   3  -4   9    7.90    7.30
   3   4  -9    1.64    3.60
  -3  -4  -9    2.97    3.92
   3  -4   9   -7.04   27.66
  -3   4   9   48.33   40.06
   3   4  -9   12.70   36.96
   3   4   9  -18.65   40.66
   3   4   9   -2.49    5.19
  -3  -4   9    3.52    6.93
  -3  -4   9    7.70   27.50
   3  -4  -9    5.92    4.36
  -3   4  -9  -21.02   18.86
   3  -4  -9   43.62   25.09
  -3   4  -9   -2.77    2.32
  -3  -4 -10  -25.43   61.26
  -3   4  10   28.53   55.06
   3   4 -10    1.66    3.61
   3   4 -10   29.06   24.82
  -3  -4 -10   -2.63    3.04
   3  -4  10   13.70   54.35
   3  -4 -10   14.96   24.40
   3   4  10    2.12    7.03
  -3   4 -10  -21.18   23.01
  -3   4 -10    8.01    4.47
  -3  -4  10    8.74   75.18
   3  -4 -10    4.83    4.44
   3   4  10   36.01   55.50
  -3   4  11   21.30   58.20
   3  -4  11    2.06   53.18
  -3  -4 -11   77.24   43.24
   3   4 -11   60.43   32.83
  -3   4 -11   20.59   33.14
   3  -4 -11  -44.02   32.07
  -3  -4  11   45.34   47.22
  -4  -4   0 1342.23  161.75
   4   4   0 1371.26  161.87
  -4  -4   0 1307.29  162.10
  -4  -4   0 1261.91  159.26
   4   4   0 1248.31  161.86
   4  -4   0 1343.76  161.84
  -4  -4  -1  194.46   24.66
   4  -4   1  190.84   24.51
  -4  -4  -1  184.09   27.41
   4   4  -1  224.94   27.76
   4   4  -1  199.06   26.80
   4   4  -1  200.08   24.77
   4  -4   1  211.22   27.77
   4  -4   1  208.92   26.62
  -4  -4  -1  214.73   24.55
  -4  -4  -1  204.12   28.25
  -4   4  -1  186.35   25.43
   4  -4  -1  201.55   26.50
  -4  -4   1  189.13   24.51
  -4  -4   1  186.81   26.94
  -4  -4   1  217.77   27.34
   4   4   1  204.02   27.30
  -4  -4  -2 1158.32  142.08
  -4  -4  -2 1152.86  142.25
   4   4  -2 1147.57  144.42
   4  -4   2 1218.38  141.87
  -4  -4  -2 1132.18  145.18
  -4  -4  -2 1286.24  152.46
   4  -4   2 1119.01  145.14
   4  -4   2 1142.01  145.22
  -4  -4  -2 1365.06  147.72
  -4   4   2 1031.27  147.23
   4  -4  -2 1010.30  144.09
   4  -4  -2 1183.39  143.11
  -4  -4   2 1177.18  144.23
  -4   4  -2 1194.09  143.94
  -4  -4   2 1175.85  141.97
  -4  -4   2 1240.19  145.25
   4   4   2 1133.16  144.77
   4  -4   3  124.17   24.90
  -4  -4  -3  144.54   18.39
  -4  -4  -3  123.76   19.12
   4   4  -3  132.91   21.43
   4  -4   3  140.16   21.64
  -4  -4  -3  134.96   30.53
   4   4  -3  146.23   18.34
  -4  -4  -3  141.13   21.53
   4  -4   3  145.97   18.20
  -4   4   3  186.39   34.02
   4  -4  -3  176.81   23.75
  -4   4  -3  176.46   22.53
  -4  -4   3  146.82   18.31
  -4   4  -3  136.28   17.88
   4   4   3  136.62   20.89
  -4  -4   3  171.13   23.56
  -4  -4   3  137.79   20.04
  -4  -4  -4  559.47   74.98
  -4  -4  -4  527.35   63.62
   4  -4   4  465.41   66.78
  -4  -4  -4  530.01   67.38
  -4   4   4  601.25   75.86
   4   4  -4  493.60   67.16
   4  -4   4  529.45   63.56
  -4  -4  -4  456.50   65.17
   4   4  -4  529.73   63.55
   4  -4   4  499.06   70.84
  -4  -4   4  528.46   65.12
   4  -4  -4  571.64   69.41
   4   4   4  385.20   83.04
  -4  -4   4  510.19   69.30
  -4   4  -4  571.80   68.45
   4  -4  -4  537.57   63.94
  -4   4  -4  537.40   63.11
  -4  -4   4  491.37   63.53
   4   4   4  479.03   64.07
   4   4   4  453.75   66.01
  -4  -4  -5   80.08   15.23
   4   4  -5   64.99    9.84
   4  -4   5   97.69   17.12
   4  -4   5   49.17   18.93
  -4  -4  -5   41.54   19.55
   4   4  -5   51.41   13.34
  -4  -4  -5   74.64   10.04
  -4  -4  -5   99.16   17.95
  -4   4   5   93.47   25.97
   4  -4   5   69.57   10.02
  -4  -4   5   73.07   11.28
  -4   4  -5   71.48    9.48
   4  -4  -5   72.74   18.37
   4   4   5   82.93   16.76
   4  -4  -5   62.95   10.18
  -4  -4   5   71.77   10.01
   4   4   5   68.51   10.50
   4   4   5   82.71   31.71
  -4   4  -5   43.15   15.38
  -4   4   6  392.90   67.98
   4   4  -6  364.19   49.92
   4   4  -6  356.75   43.45
   4  -4   6  391.03   65.38
  -4  -4  -6  356.77   43.49
  -4  -4  -6  375.38   48.16
  -4  -4  -6  250.56   53.15
   4  -4   6  315.60   43.50
   4  -4   6  320.79   47.28
   4   4   6  274.78   68.16
   4  -4  -6  395.55   53.27
  -4  -4   6  375.73   54.58
   4   4   6  324.61   46.47
  -4   4  -6  334.07   42.82
  -4   4  -6  389.17   52.05
   4   4   6  309.48   43.96
   4  -4  -6  363.25   43.92
  -4  -4   6  352.42   43.65
   4   4  -7   26.84    6.26
  -4  -4  -7   32.03    6.84
   4  -4   7   30.81   10.98
   4   4  -7   10.36   11.61
   4  -4   7   50.66   27.31
   4  -4   7   22.13    6.53
  -4  -4  -7   24.31   21.46
  -4   4  -7   31.96    6.11
  -4   4  -7    5.23   13.50
   4   4   7   53.59   40.14
   4   4   7   37.88   10.84
   4   4   7   33.46    8.30
  -4  -4   7   26.02    6.44
   4  -4  -7   47.65    8.66
  -4  -4   7    5.84   16.23
   4  -4  -7    3.87   16.31
  -4   4   8   87.22   44.16
   4   4  -8   95.14   23.98
  -4  -4  -8  125.91   17.33
   4   4  -8  126.77   17.20
  -4  -4  -8  168.71   38.42
   4  -4   8  136.87   28.00
   4  -4   8  122.89   39.87
   4   4   8  157.89   22.21
   4   4   8  101.68   50.16
   4  -4  -8  118.58   32.52
  -4  -4   8  124.72   17.65
  -4  -4   8   64.12   29.88
  -4   4  -8   81.16   26.87
  -4   4  -8  127.54   16.76
   4  -4  -8  115.45   17.63
   4   4  -9   72.30   13.20
   4  -4   9   19.42   32.96
  -4  -4  -9   82.91   13.30
   4   4  -9   37.12   18.76
  -4   4   9   65.78   48.72
  -4  -4  -9   36.00   27.42
  -4  -4   9  103.93   16.10
  -4   4  -9   75.10   11.21
   4  -4  -9   24.07   22.29
  -4  -4   9   51.69   33.65
   4   4   9   70.90   57.41
   4   4   9  132.30   23.62
   4  -4  -9   78.43   14.51
  -4   4  -9   77.44   26.36
  -4   4  10  -33.52   44.66
   4   4 -10  116.65   18.99
  -4  -4 -10  114.61   43.10
   4  -4  10   24.78   55.96
   4   4 -10   92.52   35.82
  -4  -4 -10  112.09   16.46
   4  -4 -10   73.61   32.79
   4  -4 -10  128.32   17.19
  -4   4 -10  121.69   16.21
  -4   4 -10  123.55   38.74
  -4  -4  10   23.09   39.58
  -4  -4 -11   34.30    8.08
  -4  -4 -11   23.13   46.78
   4   4 -11   25.00   27.08
   4   4 -11   17.03    6.69
  -4   4  11   53.82   73.33
   4  -4  11   47.92   70.34
   4  -4 -11   43.31    9.63
  -4   4 -11   17.33   32.06
   4  -4 -11  -11.24   36.08
  -4  -4  11  -34.41   52.96
  -4   4 -11   18.37    5.69
   4   4  11   -9.31   83.38
   5  -4   0    6.94    3.75
  -5  -4   0   -2.87    3.90
   5   4   0    2.60    1.73
   5   4   0    3.35    5.02
   5   4   0   -2.09    2.00
  -5  -4   0    5.17    4.53
   5  -4   1    5.73    5.67
  -5  -4  -1    6.65    4.89
  -5  -4  -1    5.73   14.21
   5   4  -1    2.71    1.52
   5   4  -1    1.51    2.99
   5   4  -1   -2.40    4.45
  -5  -4  -1    7.75    5.20
   5   4   1    4.14    4.40
   5   4   1    5.24    2.51
  -5  -4   1   -1.55    3.21
   5  -4  -1    0.81    3.28
  -5  -4   1    0.14    3.72
   5  -4   2    2.06    7.86
   5  -4   2    0.76    1.04
   5   4  -2    2.22    1.51
  -5  -4  -2    0.79    0.92
  -5  -4  -2    1.19    6.39
  -5  -4  -2    2.97    1.08
   5  -4   2    7.73    5.33
  -5  -4  -2    6.81    5.01
  -5  -4  -2    6.10   13.45
   5   4  -2   -5.02    4.94
   5  -4  -2    4.82    3.51
   5   4   2    3.44    4.79
   5  -4  -2    2.79    3.96
   5   4   2    6.00    2.46
  -5  -4   2    0.76    5.00
  -5   4  -2   -2.69    3.53
  -5  -4   2   -0.69    2.81
  -5  -4  -3    3.66    1.77
   5   4  -3   -8.16    4.96
   5  -4   3   -1.75    2.90
  -5  -4  -3   25.72   15.86
   5  -4   3    0.73    1.20
  -5  -4  -3  -25.37    8.10
  -5   4   3    2.18   12.81
   5   4  -3   -2.15    1.08
  -5  -4  -3    0.11    1.20
   5  -4   3  -10.07    8.88
  -5  -4  -3    3.16    4.43
  -5  -4   3    4.66    6.40
   5  -4  -3    1.19    1.58
  -5  -4   3   -0.50    1.12
  -5  -4   3    0.32    2.92
   5  -4  -3    1.51    2.16
  -5   4  -3   11.88    5.84
   5  -4  -3   -0.67    6.17
   5   4   3    3.79    4.66
   5  -4   4    2.23    1.86
  -5   4   4   15.03   16.20
  -5  -4  -4    5.72    5.68
  -5  -4  -4  -23.94   12.19
   5   4  -4    4.42    2.19
  -5  -4  -4    3.13    1.82
   5   4  -4    1.19    6.47
  -5  -4  -4    5.46    2.83
   5  -4   4   -2.81    2.88
   5  -4   4   -1.55   11.71
  -5  -4   4    5.44    7.81
  -5   4  -4    0.73    6.96
  -5  -4   4    0.75    2.98
   5   4   4    2.57    3.49
   5   4   4   -0.94    1.87
  -5   4  -4    3.08    1.75
   5  -4  -4   24.44    9.23
  -5  -4   4   -1.25    1.32
   5  -4  -4    0.76    1.84
  -5  -4  -5  -12.98   15.97
  -5  -4  -5    0.50    5.15
   5  -4   5   -9.37   16.13
   5  -4   5    8.49    3.48
  -5  -4  -5    6.50    3.78
   5  -4   5    4.85    6.32
   5   4  -5    1.18    7.74
   5   4  -5    2.80    2.56
  -5  -4  -5    5.15    2.52
  -5   4   5    7.26   18.03
  -5  -4   5    5.29    4.00
   5  -4  -5   -2.36    8.69
   5   4   5   12.78    4.44
   5   4   5   -0.38    3.96
  -5   4  -5    5.38    2.26
  -5  -4   5    4.15   11.71
   5   4   5  -19.13   22.76
   5  -4  -5   -0.79    2.38
  -5   4  -5    9.40    9.43
  -5  -4   5    5.12    3.02
  -5  -4  -6    4.12    5.40
  -5  -4  -6   18.74   17.85
  -5  -4  -6    1.07    2.24
   5  -4   6   -0.73    4.58
  -5   4   6    3.75   21.58
   5   4  -6    0.77    7.84
   5   4  -6   -2.50    1.58
  -5  -4  -6    2.35    6.48
   5  -4   6   -3.89    1.82
   5  -4   6   -4.96   19.59
  -5  -4   6    8.57   14.08
   5  -4  -6   -1.60    2.26
   5   4   6    5.37    6.13
  -5   4  -6    1.69    2.00
   5   4   6   -7.72   27.88
  -5  -4   6    3.57    2.84
  -5  -4   6   -1.36    3.09
   5   4   6    3.38    3.39
  -5   4  -6    7.17   11.32
   5  -4  -6    6.06   11.13
   5   4  -7   -1.93    9.40
  -5  -4  -7  -11.55   19.69
   5   4  -7   -0.62    2.25
   5  -4   7   -1.64    2.69
   5  -4   7    6.80    5.78
   5  -4   7    9.58   25.29
  -5   4   7   16.92   25.90
  -5  -4  -7    1.84    5.56
  -5  -4  -7    3.57    2.70
  -5   4  -7    0.68    2.20
   5   4   7    6.03   36.44
   5   4   7   -2.54    4.77
   5  -4  -7   13.33   14.00
  -5  -4   7    4.89    3.19
  -5   4  -7    4.67   12.88
   5  -4  -7    3.83    3.44
   5   4   7    7.35    4.74
  -5  -4   7    1.12    3.16
   5  -4   8    5.69   29.30
  -5  -4  -8   38.96   22.72
   5   4  -8   -0.52    2.70
  -5  -4  -8    2.64    3.41
   5   4  -8    2.61   12.46
  -5   4   8    9.81   32.04
  -5  -4   8   -1.00    3.19
  -5   4  -8  -21.47   17.60
   5  -4  -8   14.53   15.61
  -5   4  -8    1.86    2.65
   5   4   8  -11.30   40.81
   5  -4  -8    3.03    3.65
  -5  -4   8  -37.69   18.06
  -5  -4  -9   31.82   30.81
   5   4  -9    3.70    3.74
   5   4  -9  -16.71   19.78
   5  -4   9   36.69   43.73
  -5  -4  -9    2.18    3.46
  -5  -4   9    4.40   33.00
   5  -4  -9  -13.31   19.35
   5  -4  -9    4.32    4.57
  -5  -4   9    5.49    4.86
  -5   4  -9    6.39    3.57
  -5   4  -9    6.33   21.70
  -5  -4   9    3.92    4.40
  -5  -4 -10    1.71    3.29
   5   4 -10    8.49    5.17
   5   4 -10  -11.37   26.63
  -5  -4 -10  -51.69   31.77
  -5   4  10  -37.73   46.90
   5  -4  10  -60.35   54.88
  -5  -4  10   24.88   34.76
  -5   4 -10    4.50   26.86
  -5  -4  10    3.04    3.99
   5   4  10  -86.96   62.99
  -5   4 -10    0.94    3.22
   5  -4 -10  -34.64   26.40
   5  -4 -10   -0.45    3.53
   6   4   0  351.15   50.44
   6  -4   0  406.72   51.00
   6   4   0  381.65   47.72
  -6  -4   0  420.53   51.90
  -6  -4   0  367.73   49.81
   6   4   0  400.80   50.77
   6   4  -1  161.39   22.20
   6   4  -1  143.70   22.61
  -6  -4  -1  138.98   25.99
  -6  -4  -1  153.37   22.91
   6   4  -1  155.01   19.10
  -6   4   1  145.38   22.35
   6  -4   1  164.35   22.85
  -6  -4  -1  110.98   30.22
   6   4   1  159.87   22.54
  -6  -4   1  151.91   22.80
   6   4   1  132.66   19.76
   6  -4  -1  141.97   21.56
  -6  -4   1  187.38   22.69
  -6  -4  -2  482.71   59.98
  -6   4   2  437.50   57.50
   6  -4   2  459.45   54.43
  -6  -4  -2  448.06   66.59
   6  -4   2  447.25   58.94
  -6  -4  -2  446.52   59.51
   6   4  -2  430.34   58.23
   6   4  -2  414.23   57.28
   6   4  -2  445.75   54.71
   6  -4   2  459.81   61.42
   6  -4  -2  449.38   56.83
   6   4   2  418.91   58.25
  -6   4  -2  436.45   55.93
  -6  -4   2  434.78   58.25
  -6  -4   2  456.94   58.17
   6   4  -3  133.69   17.12
   6  -4   3  103.70   27.86
  -6  -4  -3  149.99   29.50
  -6   4   3  116.31   28.72
  -6  -4  -3  123.68   16.47
  -6  -4  -3  113.56   29.72
   6  -4   3  129.21   16.96
   6  -4   3  134.46   21.08
  -6   4   3  141.74   19.34
   6   4  -3  149.30   22.03
  -6  -4  -3  135.81   16.33
  -6  -4  -3  150.92   22.48
  -6  -4   3  139.34   20.18
  -6  -4   3  116.32   23.71
   6  -4  -3  122.23   18.34
   6   4   3  127.15   20.57
   6  -4  -3  141.03   17.26
  -6   4  -3  142.16   20.64
   6  -4  -3  138.36   20.08
  -6  -4  -4  317.08   60.29
  -6  -4  -4  365.32   47.07
   6   4  -4  384.74   51.68
  -6  -4  -4  392.45   46.65
  -6   4   4  399.89   63.74
   6  -4   4  344.24   51.23
  -6  -4  -4  516.51   59.83
   6  -4   4  373.14   59.95
   6   4  -4  383.60   47.21
   6  -4   4  385.07   47.25
  -6  -4  -4  371.09   52.45
  -6  -4   4  418.83   54.14
   6  -4  -4  395.58   51.41
   6   4   4  349.95   51.03
  -6   4  -4  407.34   51.86
   6  -4  -4  345.66   47.32
  -6  -4   4  375.98   49.80
   6  -4   5   71.57   16.24
   6   4  -5   67.66   10.03
   6   4  -5   65.72   16.88
   6  -4   5   73.83   28.02
  -6  -4  -5   80.47   17.98
  -6   4   5  105.03   32.33
  -6  -4  -5   90.76   26.06
   6  -4   5   86.05   10.52
  -6  -4  -5   86.09   13.49
  -6  -4  -5   67.28    9.50
  -6  -4   5   93.18   16.62
  -6  -4   5  114.23   24.59
  -6   4  -5   70.74    8.93
   6  -4  -5   65.98   10.35
   6   4   5   84.64   18.02
   6  -4  -5   73.79   17.51
  -6   4  -5   66.80   17.00
  -6   4  -5   56.21    9.10
  -6  -4  -6  238.14   34.01
  -6  -4  -6  251.84   31.79
   6  -4   6  227.18   44.06
   6  -4   6  258.45   32.66
  -6  -4  -6  272.73   50.94
   6  -4   6  297.38   56.87
   6   4  -6  298.82   44.56
   6   4  -6  254.97   32.30
  -6  -4  -6  245.46   38.36
  -6   4   6  259.16   54.75
   6  -4  -6  282.90   41.20
   6   4   6  238.00   36.51
   6   4   6  252.87   65.93
   6   4   6  238.48   33.08
   6  -4  -6  251.78   32.69
  -6  -4   6  247.49   34.06
  -6  -4   6  263.98   47.60
  -6   4  -6  247.96   31.38
  -6   4  -6  239.24   43.12
   6  -4   7  100.83   41.99
  -6  -4  -7   74.88   11.73
  -6  -4  -7   80.52   29.86
   6   4  -7   75.61   12.17
  -6  -4  -7   86.74   18.30
  -6   4   7   68.03   34.81
   6   4  -7   70.21   19.10
   6  -4   7   90.29   13.02
  -6   4  -7  137.79   28.09
  -6   4  -7   80.99   11.43
   6   4   7   49.02   42.85
  -6  -4   7   94.30   14.01
  -6  -4   7  122.90   33.43
   6  -4  -7  109.46   23.32
   6  -4  -7   93.95   15.02
   6   4  -8   90.23   24.89
  -6  -4  -8   69.97   18.18
   6  -4   8   88.20   45.92
   6   4  -8   97.39   14.06
  -6  -4  -8  102.94   13.48
  -6  -4  -8  114.32   37.06
  -6   4   8   72.74   44.62
   6  -4  -8  102.15   26.29
  -6  -4   8   98.45   37.83
  -6  -4   8  107.27   15.39
   6  -4  -8   97.63   14.39
  -6   4  -8   83.94   12.88
  -6   4  -8   79.62   25.82
   6  -4   9 -110.42   49.40
  -6  -4  -9   77.73   36.79
   6   4  -9   16.99    5.66
  -6   4   9   29.92   43.89
   6   4  -9   16.89   22.04
  -6  -4  -9   14.76    8.90
  -6  -4  -9   17.44    5.38
  -6   4  -9   14.63    4.52
   6  -4  -9  -10.28   19.78
   6  -4  -9   22.21    6.47
   6   4   9  -52.84   59.16
  -6  -4   9   42.08    9.30
  -6   4  -9   37.53   25.86
  -6   4  10  -50.76   55.10
   6   4 -10   15.18   24.45
  -6  -4 -10   70.64   42.34
   6  -4  10  -24.71   66.05
  -6  -4  10   18.42   40.93
   6   4  10  -72.20   72.75
  -6   4 -10   28.81   32.59
   6  -4 -10  -20.46   25.79
   7   4   0   -0.45    1.63
  -7  -4   0   -0.63    4.07
   7  -4   0   -0.03    3.16
   7   4   0    0.76    3.57
  -7  -4   0    8.70    5.64
   7  -4   1    5.61    4.88
   7   4  -1    9.45    4.95
  -7   4   1    3.89    5.28
  -7  -4  -1    6.55    4.92
   7   4  -1  -16.82    6.77
  -7  -4  -1   -1.92    5.93
  -7  -4  -1  -30.62   16.25
   7   4  -1    1.57    1.75
   7   4   1    7.96    5.31
  -7  -4   1    5.74    5.90
   7   4   1    7.29    2.80
  -7  -4   1    1.24    5.66
   7  -4  -1    0.56    3.53
  -7  -4  -2    3.34    7.47
   7  -4   2   -1.47    3.74
   7   4  -2    0.45    7.65
  -7  -4  -2    6.13    6.34
  -7   4   2   -1.33    4.23
   7  -4   2    3.06    1.42
   7   4  -2    3.37    1.87
   7   4  -2    6.65    3.69
   7  -4  -2    1.88    4.01
   7   4   2    7.61    2.72
   7   4   2    1.71    4.63
  -7  -4   2    2.19    4.95
  -7  -4   2    1.54    6.93
  -7  -4  -3    4.18   16.52
   7   4  -3  -13.96    7.77
   7   4  -3    1.93    1.95
   7  -4   3   16.17    7.67
  -7   4   3   -0.48    3.77
   7  -4   3    3.87    2.07
  -7  -4  -3    8.55    6.98
   7  -4   3   46.67   18.16
  -7  -4  -3  -11.32   10.93
   7  -4  -3    2.84    5.31
   7  -4  -3    1.66    2.06
   7   4   3    5.10    5.71
  -7  -4   3   11.89    8.74
  -7  -4   3    2.08    4.45
  -7   4  -3    3.64    6.13
   7  -4  -3    2.04    3.23
   7  -4   4    2.43    5.36
  -7  -4  -4    7.70   17.37
  -7  -4  -4    0.01    5.58
   7  -4   4   -1.54   21.89
  -7  -4  -4    7.03   14.71
   7   4  -4   -1.21    1.59
   7  -4   4   -1.31    1.71
  -7   4   4  -22.48   19.23
   7   4  -4    3.80    8.45
   7  -4  -4   -1.33    1.59
  -7  -4   4   -3.15   12.51
  -7  -4   4    2.25    4.52
   7   4   4   -0.64    3.29
   7  -4  -4   -8.67    7.36
  -7   4  -4  -13.09    8.01
   7  -4   5  -76.04   32.48
  -7  -4  -5    1.07    1.34
  -7  -4  -5   19.43   19.70
  -7  -4  -5   -0.51    5.48
   7   4  -5  -18.33    9.84
  -7   4   5   -9.45   23.44
   7   4  -5    1.83    2.31
  -7  -4  -5   -9.18   17.90
   7  -4   5    0.20    2.70
   7  -4  -5   -1.13    2.01
  -7  -4   5    2.82    4.65
  -7   4  -5   -5.11   10.39
   7  -4  -5   13.97    9.39
  -7  -4   5   23.18   14.07
  -7  -4  -6    0.82    6.35
   7  -4   6    1.68    3.32
  -7  -4  -6    7.74    3.24
  -7   4   6   34.01   29.16
  -7  -4  -6    3.25    2.03
  -7  -4  -6   -1.94   19.82
   7   4  -6    5.55    3.39
   7   4  -6    7.04   12.49
  -7  -4   6   -6.07   16.96
  -7   4  -6   -8.67   12.21
   7  -4  -6    7.65   12.62
   7  -4  -6   -0.42    2.76
   7  -4   7    3.11    4.11
  -7  -4  -7   12.95    4.55
   7   4  -7    1.98    3.30
   7  -4   7   35.70   38.10
  -7  -4  -7    2.36    2.53
  -7   4   7  -14.07   31.86
  -7  -4  -7  -10.87   25.27
   7   4  -7   32.33   15.94
   7  -4  -7  -14.70   14.14
  -7   4  -7    5.02    2.39
  -7  -4   7    0.13    4.22
  -7   4  -7    2.25    1.93
   7  -4  -7    5.24    4.08
  -7   4  -7  -22.83   16.17
  -7  -4   7    9.85   23.70
  -7  -4  -8   15.03    6.32
   7   4  -8  -28.74   15.90
  -7  -4  -8    4.66   27.99
  -7   4   8  -38.98   36.43
   7  -4   8   62.73   52.96
   7   4  -8   -0.59    2.67
  -7  -4  -8   -0.57    2.05
  -7   4  -8   -0.50    2.01
  -7   4  -8    1.75    3.91
   7  -4  -8   22.45   18.75
  -7  -4   8    0.55    4.39
  -7   4  -8   13.33   21.88
  -7  -4   8  -25.13   27.97
   7  -4  -8    1.95    3.60
  -7  -4  -9    0.49    2.23
   7  -4   9   64.42   61.67
   7   4  -9    0.72    3.10
  -7  -4  -9    9.24    6.19
  -7  -4  -9   12.71   35.88
  -7   4   9    7.52   54.62
   7   4  -9  -22.95   20.46
   7  -4  -9   18.19   23.62
  -7   4  -9    2.16    2.74
  -7  -4   9    4.97    4.24
  -7   4  -9   -4.69   25.87
   7   4   9  -38.61   73.64
   7  -4  -9    3.06    4.37
  -7   4  -9   -0.96    3.84
  -7  -4   9    0.66   37.32
   8   4   0  224.02   31.83
  -8  -4   0  175.03   40.46
  -8  -4   0  231.59   30.50
  -8  -4   0  223.61   33.11
   8   4   0  223.64   28.10
   8  -4   0  202.69   31.42
   8  -4   1  132.15   16.31
   8  -4   1  196.22   32.13
  -8   4   1  144.09   22.24
   8   4  -1  126.65   17.10
  -8  -4  -1  103.07   28.85
  -8  -4  -1  130.80   20.81
   8   4  -1  132.07   20.85
  -8  -4  -1  191.90   31.53
   8  -4  -1  153.02   21.05
   8   4   1  170.60   29.55
  -8  -4   1  139.27   22.10
   8   4   1  105.48   17.73
  -8  -4   1  150.56   25.90
   8   4  -2  299.16   40.64
   8   4  -2  271.26   41.29
   8  -4   2  309.05   42.32
  -8  -4  -2  260.58   41.13
  -8   4   2  324.46   41.94
  -8  -4  -2  280.13   49.45
   8   4  -2  315.25   37.04
   8  -4   2  291.65   36.64
  -8  -4  -2  284.94   43.41
   8  -4  -2  331.22   40.44
  -8  -4   2  325.25   42.27
   8   4   2  288.26   41.91
  -8  -4   2  270.72   41.34
   8  -4  -2  287.83   36.63
   8  -4   3   64.88    9.51
   8   4  -3   69.74    9.67
  -8  -4  -3   77.10   20.72
  -8  -4  -3   53.93   17.64
   8  -4   3  133.75   26.57
   8   4  -3   45.29   16.14
  -8   4   3  110.70   19.29
  -8  -4  -3   86.88   24.03
  -8  -4   3   92.38   18.81
   8  -4  -3   65.60    9.55
   8  -4  -3   88.80   12.59
  -8   4  -3   73.06   12.90
  -8  -4   3   42.96   16.00
  -8  -4  -4  125.35   31.94
  -8  -4  -4  105.41   29.04
  -8  -4  -4  159.12   31.58
   8   4  -4  149.77   26.44
   8   4  -4  120.11   18.06
   8  -4   4  148.87   18.44
   8  -4  -4  143.15   18.37
   8  -4  -4  161.87   22.81
  -8   4  -4  133.40   23.70
  -8  -4   4  128.80   28.60
   8  -4  -4  137.57   20.04
  -8  -4   4  154.16   22.14
   8   4  -5   50.53    9.63
  -8  -4  -5   56.04   26.46
  -8  -4  -5   72.96   18.40
   8  -4   5   56.98   34.06
   8   4  -5   73.87   19.09
  -8   4   5   69.39   34.69
  -8  -4  -5  107.70   28.84
   8  -4   5   70.67   11.18
   8  -4  -5   55.92   15.15
  -8  -4   5   19.12   19.52
  -8  -4   5   57.22   13.96
  -8   4  -5   52.02   14.74
   8  -4  -5   60.97   10.21
   8   4  -6   92.58   13.97
  -8  -4  -6   94.47   34.14
   8  -4   6  100.08   14.80
   8   4  -6   86.49   25.23
  -8   4   6   79.99   41.08
  -8  -4  -6   88.41   24.17
  -8  -4  -6   65.89   29.44
  -8  -4   6  134.36   21.87
  -8   4  -6  100.95   24.66
   8  -4  -6  125.84   23.68
  -8  -4   6   41.92   26.13
   8  -4  -6  116.04   14.67
  -8  -4  -7   16.35   25.74
   8   4  -7    6.85   18.21
  -8  -4  -7    2.41   26.08
   8  -4   7   40.64   48.57
   8   4  -7   25.85    6.11
  -8   4   7   12.46   42.02
  -8  -4  -7   23.77    3.91
   8  -4  -7    8.25   17.67
  -8  -4   7   15.73    7.29
  -8  -4   7   30.02   30.60
  -8   4  -7   -4.78   17.92
   8  -4  -7   16.91    5.45
  -8  -4  -8   71.36    9.56
  -8   4   8   34.47   52.68
   8   4  -8   56.11   25.06
  -8  -4  -8   29.36   31.73
   8  -4   8   32.74   58.22
   8   4  -8   81.42   12.83
   8  -4  -8  103.62   29.54
  -8  -4   8  -19.10   33.28
   8  -4  -8   66.81   13.07
  -8   4  -8   -7.30   24.79
  -8  -4   8   95.65   17.27
  -9  -4   0   21.52   19.07
   9   4   0    3.83    5.81
  -9  -4   0    2.19    7.58
   9  -4   0   11.47    6.73
   9   4   0    7.67    2.73
  -9  -4  -1   20.08   10.58
  -9  -4  -1   -3.35    7.12
  -9  -4  -1   17.79   16.64
   9  -4   1    1.94    6.56
   9   4  -1    1.15    2.19
   9   4  -1   10.25    5.50
   9  -4  -1    4.09    5.38
   9   4   1    7.80    3.02
  -9  -4   1    7.68    6.96
  -9  -4   1   -2.54    7.99
  -9  -4  -2   -5.60    8.22
   9  -4   2   -0.47    1.46
   9   4  -2    7.98   10.36
   9   4  -2    0.91    1.92
  -9  -4  -2   -6.30    4.84
   9   4  -2   -1.65    3.79
  -9  -4  -2   -2.97   16.00
   9  -4  -2    5.21    6.20
   9   4   2    0.89    2.48
  -9  -4   2    1.32   10.74
   9  -4  -2    0.34    1.30
  -9  -4   2    8.42    5.67
   9  -4   3    2.88    2.49
  -9  -4  -3  -39.54   16.50
  -9  -4  -3   -6.94   11.30
  -9  -4  -3    6.59    8.27
   9   4  -3   -0.82    1.88
   9   4  -3   11.00   12.15
   9  -4  -3    1.39    1.89
  -9  -4   3   10.43   14.53
   9  -4  -3   -5.00    2.97
  -9  -4   3   -1.03    4.77
   9   4  -4    4.04    2.59
   9  -4   4    3.49    3.27
   9   4  -4  -19.93   12.99
  -9  -4  -4   48.97   22.00
  -9  -4  -4   17.55   17.69
  -9  -4  -4   -1.81    7.49
  -9   4  -4  -14.35   14.81
  -9   4  -4   -2.19    7.72
   9  -4  -4   -0.60    3.44
  -9  -4   4   -3.50   16.56
   9  -4  -4   -0.36    2.02
   9   4  -5    6.54   16.77
  -9  -4  -5   -6.11   22.02
  -9  -4  -5   -8.06   22.52
   9  -4   5    7.52    4.09
  -9  -4  -5    8.83    8.92
   9   4  -5    2.47    2.96
   9  -4  -5    2.85   11.26
  -9   4  -5   -8.14   11.37
  -9  -4   5    1.91    5.48
  -9  -4   5   -0.23   19.66
   9  -4  -5    3.60    2.99
   9  -4   6   -2.76   45.98
  -9   4   6   27.36   41.62
  -9  -4  -6   29.15   26.81
  -9  -4  -6    2.73    6.71
  -9  -4  -6  -28.19   27.47
   9  -4   6    5.56    4.56
   9   4  -6    1.95   18.02
   9   4  -6    1.09    2.68
  -9   4  -6   22.11   15.10
   9  -4  -6   -1.72    2.41
  -9  -4   6   -1.42    4.46
   9  -4  -6   -3.98   13.86
  -9  -4   6   -0.41   27.00
  -9  -4  -7   -0.94   30.43
   9   4  -7   24.76   21.30
   9   4  -7   -0.59    2.85
  -9   4   7   38.75   48.82
  -9  -4  -7   28.07   33.46
   9  -4   7  -40.82   66.24
   9  -4  -7   10.88   18.95
  -9   4  -7   -8.69   18.50
  -9  -4   7    0.50   32.88
   9  -4  -7   -1.06    2.98
  -9  -4   7    2.89    4.25
  10   4   0  103.72   15.39
 -10  -4   0  146.32   26.68
  10   4  -1   48.13    7.80
  10  -4   1   34.14    5.04
 -10  -4  -1   50.86   17.32
 -10  -4   1   46.38   13.42
  10   4   1   26.58    7.70
  10  -4  -1   43.05   13.48
 -10  -4  -2   79.51   20.39
  10  -4   2   90.28   10.87
 -10  -4  -2   52.92   14.36
  10   4  -2   73.69   11.13
 -10  -4  -2  109.56   23.49
  10  -4  -2   78.69   10.34
  10  -4  -2  111.03   21.75
 -10  -4   2   84.39   19.45
  10  -4   3   61.08    8.19
 -10  -4  -3   36.50   19.84
 -10  -4  -3   64.26   18.36
  10   4  -3   43.44   15.61
 -10  -4  -3   13.75   13.91
  10   4  -3   52.33    7.87
 -10  -4   3   25.26   18.17
  10  -4  -3   82.15   17.49
  10  -4  -3   51.08    7.37
 -10  -4   3   73.41   19.59
 -10  -4  -4   70.56   28.02
  10   4  -4  115.10   15.96
  10   4  -4  102.41   24.80
 -10  -4  -4  120.42   28.38
 -10  -4  -4   91.41   26.48
  10  -4   4  111.07   16.25
  10  -4  -4  128.18   15.85
 -10  -4   4  170.99   32.87
  10  -4  -4  122.15   19.12
 -10  -4   4  154.47   28.21
  10   4  -5   32.04    6.68
  10  -4   5   40.12    8.59
 -10  -4  -5   23.77   14.43
 -10  -4  -5   50.65   26.01
  10   4  -5   59.01   22.64
 -10  -4  -5   19.21   24.85
  10  -4  -5   38.99    7.21
 -10   4  -5   43.15   21.93
 -10  -4   5   22.93    9.97
 -10   4  -5   48.61   13.24
 -10  -4   5   16.92   26.00
 -10  -4  -6   98.43   37.57
  10   4  -6   71.98   26.94
  10   4  -6   68.97   11.12
 -10  -4   6   63.52   36.63
 -10   4  -6   39.60   22.44
  10  -4  -6   75.67   19.98
  10  -4  -6   55.91   10.67
 -10  -4   6   65.06   17.17
  11   4   0    4.34    3.11
 -11  -4   0   -2.92    6.69
 -11  -4  -1   -5.82    6.43
  11   4  -1    4.14    2.61
 -11  -4   1    3.63    9.86
  11   4   1    4.57    3.66
 -11  -4  -2    3.16    9.06
  11   4  -2    2.60    2.40
  11  -4   2    2.57    2.74
  11  -4  -2    0.05    1.27
 -11  -4   2    7.44    7.04
  11  -4   3    3.01    3.52
  11   4  -3    4.25    2.86
 -11  -4  -3   -0.90    7.99
  11  -4  -3   -0.18    1.80
 -11  -4   3    0.26    6.88
  11  -4  -3    0.24    4.95
 -11  -4  -4    6.67   19.31
  11  -4   4   -2.81    2.97
 -11  -4  -4   -2.00    9.07
  11   4  -4    1.77    2.79
 -11  -4  -4   -5.45   16.21
  11  -4  -4   -1.82    1.81
 -11  -4   4    4.58    7.80
   0  -5   0   -0.15    1.94
   0   5   0    2.65    3.21
   0  -5   0    0.60    1.39
   0   5   0   -0.14    1.46
   0  -5  -1    3.75    2.78
   0   5  -1    1.57    1.27
   0   5  -1    5.23    4.57
   0  -5   1   -1.55    2.97
   0  -5   1    4.72    1.46
   0  -5  -1    3.22    4.58
   0   5   1    1.41    2.43
   0   5  -2   -2.16    1.75
   0  -5   2   -7.79    5.31
   0  -5  -2   -2.87    7.98
   0  -5  -2   -1.27    1.31
   0   5  -2    0.28    0.93
   0  -5   2    0.09    0.94
   0  -5   3   11.12    5.47
   0  -5  -3    5.44    2.70
   0   5  -3    5.41    1.93
   0   5   3   -4.38   15.38
   0   5   3    4.84    2.46
   0  -5  -3    1.94    8.78
   0  -5  -3    3.11    2.19
   0   5  -3    0.57    4.05
   0  -5   3    3.98    1.90
   0  -5   4    3.28    2.25
   0   5   4   -0.73    1.92
   0  -5  -4    2.85   13.51
   0   5  -4   12.05   10.66
   0  -5  -4   -0.03    2.08
   0   5  -4    0.92    1.62
   0   5   4  -11.00   11.11
   0  -5   4    1.41    8.85
   0  -5  -4    2.41    2.98
   0  -5  -5   25.20   13.65
   0   5  -5    3.41    2.26
   0   5   5    2.45   18.37
   0  -5  -5    3.48    3.08
   0   5  -5    8.56    7.39
   0  -5   5    0.99    2.20
   0   5   5    0.75    2.36
   0  -5   5    0.22    8.08
   0  -5  -6   -0.99    2.36
   0   5   6    2.21    2.86
   0  -5  -6   -9.36   16.04
   0   5  -6    9.41    8.88
   0  -5   6   -5.61   12.39
   0  -5   6   -0.77    2.15
   0   5   6   -1.80   19.73
   0   5  -6    2.78    2.41
   0   5   7  -44.87   31.51
   0  -5   7   -1.23   12.24
   0  -5  -7    0.66    2.77
   0   5  -7    5.12   12.12
   0  -5  -7   10.65   14.29
   0   5  -7    0.85    2.55
   0   5   7    2.32    3.60
   0  -5   7   -1.56    2.49
   0  -5  -8    6.98   16.61
   0   5   8   -0.72    3.41
   0   5  -8   18.72   16.85
   0   5  -8    3.04    3.07
   0   5   8   -2.75   42.32
   0  -5  -8   11.04    5.03
   0  -5   8    3.87    3.80
   0  -5   8   -3.65   14.02
   0  -5  -9   -4.52    2.81
   0   5  -9    5.12   16.91
   0  -5  -9    0.65   21.23
   0   5  -9    3.34    3.50
   0  -5   9   32.06   32.49
   0   5   9   -7.00   38.70
   0   5   9   -1.61    3.55
   0   5  10   -8.54   47.94
   0  -5 -10    1.19    3.92
   0  -5  10   -4.16    5.67
   0   5  10    4.36    5.34
   0   5 -10  -15.17   23.20
   0   5 -10   -1.77    3.36
   0  -5  10  -42.66   31.92
   0  -5 -10   22.37   25.52
   0   5 -11   -0.01    3.30
   0  -5  11   -0.54    6.15
   0   5  11   -3.46    3.87
   0  -5 -11   -0.03    3.88
   0  -5  11  -79.50   88.17
   0   5 -11  -22.97   28.24
   0  -5 -11  -20.98   32.78
   0   5  11    8.17   85.80
  -1  -5   0  776.84   85.87
   1   5   0  685.26   85.95
   1   5   0  711.10   87.77
  -1   5   0  705.90   87.22
   1  -5   0  708.22   87.08
   1  -5   0  621.98   85.86
   1   5  -1  450.66   52.14
  -1  -5  -1  371.27   52.69
  -1  -5  -1  432.44   53.04
   1   5  -1  428.98   53.91
   1  -5   1  466.29   52.11
   1  -5   1  461.23   53.71
  -1   5   1  387.17   54.00
   1   5   1  374.87   54.27
  -1  -5   1  436.26   52.04
  -1  -5   1  429.45   53.96
   1   5   1  432.59   52.98
   1  -5  -1  442.26   54.31
  -1   5  -1  408.31   52.14
  -1   5  -1  384.46   53.32
   1   5  -2   94.19   13.39
   1  -5   2  100.06   14.03
   1  -5   2   88.71   10.80
   1   5  -2   90.09   10.88
  -1  -5  -2   85.29   11.92
  -1  -5  -2  119.32   26.07
   1   5   2   64.00   11.45
  -1  -5   2   92.03   13.85
  -1  -5   2   73.87   10.77
  -1   5  -2   81.41   10.78
   1  -5  -2  106.31   20.99
  -1  -5  -3 1388.13  168.83
  -1   5   3 1354.54  178.10
   1   5  -3 1321.70  171.17
   1  -5   3 1315.39  171.94
  -1  -5  -3 1388.41  169.47
   1  -5  -3 1562.00  176.91
   1   5   3 1347.45  179.50
  -1   5  -3 1392.61  171.41
   1   5   3 1378.49  169.24
  -1  -5  -4  447.59   60.08
   1  -5   4  400.38   48.95
  -1   5   4  377.60   61.31
  -1  -5  -4  380.91   50.19
   1  -5   4  412.55   54.81
   1   5  -4  394.01   48.83
  -1  -5  -4  382.80   49.42
  -1  -5   4  380.63   48.95
  -1   5  -4  353.53   52.64
  -1  -5   4  388.60   54.22
   1   5   4  393.33   49.93
  -1   5  -4  400.59   48.76
   1   5   4  565.49   83.92
   1  -5  -4  407.46   49.51
   1   5  -5 1544.53  191.78
   1  -5   5 1454.89  186.71
   1   5  -5 1533.58  186.58
  -1  -5  -5 1542.84  187.23
  -1   5   5 1515.14  200.58
  -1  -5  -5 1525.46  188.25
  -1  -5   5 1492.45  186.80
  -1  -5   5 1612.06  194.08
   1  -5  -5 1547.37  187.26
  -1   5  -5 1538.53  186.47
   1   5   5 1522.86  187.75
   1  -5   6  236.60   30.70
  -1   5   6  459.23   78.06
  -1  -5  -6  231.41   31.01
   1   5  -6  245.75   38.00
  -1  -5  -6  384.66   66.79
   1   5  -6  250.43   30.50
   1  -5   6  169.65   39.71
   1  -5  -6  430.18   68.73
  -1   5  -6  238.93   30.31
  -1   5  -6  243.66   38.26
   1   5   6  232.27   31.60
  -1  -5   6  244.01   43.66
   1   5   6  144.22   47.46
   1  -5  -6  236.32   31.10
  -1  -5   6  230.12   30.68
   1  -5   7  410.60   55.93
   1   5  -7  455.22   55.65
  -1  -5  -7  432.38   56.14
   1   5  -7  421.95   63.54
  -1   5   7  515.96   87.38
   1  -5  -7  466.48   56.40
  -1   5  -7  467.55   55.55
  -1   5  -7  428.66   63.90
   1   5   7  434.26   78.75
   1   5   7  433.89   56.93
   1  -5  -7  432.00   67.90
  -1  -5   7  439.22   56.07
   1  -5   8  131.66   39.48
  -1   5   8  226.34   69.14
   1   5  -8  195.36   25.59
  -1  -5  -8  230.90   45.82
   1  -5   8  198.42   26.17
  -1  -5  -8  191.32   26.22
   1   5  -8  255.60   44.05
  -1   5   8  205.22   25.52
  -1   5  -8  174.47   25.20
   1   5   8   97.08   45.67
  -1  -5   8  203.92   50.82
  -1   5  -8  217.86   41.85
  -1  -5   8  177.86   25.89
   1  -5  -8  405.12   71.48
   1   5   8  198.68   27.35
   1  -5  -8  192.01   26.27
  -1  -5  -9  197.44   51.43
   1   5  -9  183.95   27.90
  -1   5   9  217.48   28.11
  -1   5   9  148.68   58.33
  -1  -5  -9  233.61   28.99
   1   5  -9  173.96   36.37
   1  -5   9  209.66   32.43
   1   5   9  243.68   81.28
  -1   5  -9  199.98   27.95
  -1   5  -9  301.55   47.52
   1   5   9  242.32   30.18
   1  -5  -9  198.14   28.69
   1  -5  -9  389.81   66.03
  -1  -5 -10    0.27   23.14
  -1   5  10  -13.37   48.36
  -1   5  10   53.27   10.21
   1   5 -10   63.21   25.92
  -1  -5 -10   49.51   10.82
   1  -5  10   66.13   17.05
   1   5 -10   41.53    9.46
   1  -5  10    1.02   34.28
  -1   5 -10   30.61    8.36
   1   5  10   83.76   75.54
   1  -5 -10   35.81    9.19
  -1  -5  10   58.53   37.62
  -1   5 -10   72.43   31.09
   1  -5 -10  -12.86   26.49
   1   5  10   41.77   11.91
   1  -5  11   35.90   72.44
  -1  -5 -11   84.60   15.22
   1   5 -11   66.35   30.60
  -1  -5 -11   35.47   40.47
   1   5 -11   70.49   14.12
  -1   5  11   95.95   72.11
   1   5  11   83.18   18.18
  -1   5 -11  145.75   45.93
   1   5  11   62.56   85.19
   1  -5 -11   62.69   37.00
  -1  -5  11  120.08   23.16
   1  -5 -11   79.24   15.48
  -1  -5  11   61.15   41.85
  -1   5 -11   77.59   14.30
   2  -5   0    0.79    1.45
  -2  -5   0   -1.62    1.52
  -2   5   0    2.49    2.40
  -2  -5   0   -1.11    0.89
   2   5   0   -1.34    2.71
   2  -5   0   -0.76    2.34
   2   5   0    1.42    1.52
   2   5  -1    1.03    1.00
  -2  -5  -1    0.81    3.39
   2  -5   1    0.36    0.99
   2   5  -1    2.09    3.03
  -2  -5  -1    1.16    2.25
   2  -5   1    1.32    2.30
  -2  -5  -1   -0.92    1.27
  -2  -5   1    0.56    0.90
   2   5   1    3.85    3.69
  -2   5  -1    1.11    1.17
   2   5   1    2.10    1.70
   2  -5  -1   -1.02    2.75
  -2   5  -1   -0.13    1.90
   2   5   1    1.36    2.05
  -2  -5   1    2.09    2.61
  -2  -5  -2   -1.56    4.48
  -2  -5  -2    0.46    2.90
  -2  -5  -2   -1.91    2.08
  -2  -5  -2   -1.21    1.55
  -2  -5  -2    0.01   11.73
   2  -5   2   -0.25    0.96
   2   5  -2    0.54    1.25
   2  -5   2    1.35    3.51
   2   5  -2    3.38    3.30
  -2   5  -2    9.46    3.75
  -2  -5   2    0.64    1.27
   2   5   2    2.35    3.23
  -2  -5   2    4.64    3.76
  -2   5  -2    0.83    1.22
   2  -5  -2   -0.44    7.21
   2  -5   3    8.84    6.02
  -2  -5  -3   -0.89    2.60
  -2  -5  -3   -8.56   11.33
   2   5  -3    1.28    1.65
  -2  -5  -3    1.05    2.18
   2   5  -3   -1.64    3.36
   2  -5   3    3.76    1.89
   2  -5  -3   -7.74    6.84
   2   5   3   -0.02    2.78
  -2  -5   3    1.58    1.70
   2   5   3    5.76   12.67
  -2   5  -3   -0.55    4.19
  -2  -5   3    4.84    5.62
  -2   5  -3    4.68    1.74
   2  -5   4    3.26    2.20
  -2  -5  -4    0.96    2.25
  -2  -5  -4  -28.51   14.00
   2   5  -4    1.46    4.86
   2   5  -4    2.51    2.01
   2  -5   4    3.92    7.59
  -2   5   4    4.55   14.75
  -2  -5  -4    0.82    3.25
   2  -5  -4    2.95    2.39
  -2  -5   4   -1.80    6.52
   2   5   4    0.93    2.76
  -2   5  -4   -2.86    5.33
  -2   5  -4    1.13    1.70
   2  -5  -4    1.66    8.99
   2   5   4   -7.81   14.95
  -2  -5   4   -1.37    1.33
  -2   5   5    4.13   14.33
   2   5  -5   -8.86    5.34
  -2  -5  -5    5.42   15.39
   2  -5   5  -13.03    9.84
  -2  -5  -5    4.89    3.05
  -2  -5  -5   -1.21    3.26
   2  -5   5    2.25    2.25
   2   5  -5    3.99    2.57
   2  -5  -5    1.46    2.52
  -2   5  -5    3.23    2.10
   2   5   5    3.90    3.67
  -2  -5   5    2.81    2.33
  -2   5  -5   -2.23    7.41
  -2  -5   5    3.73    7.24
   2   5   5    7.87   19.11
   2  -5  -5   19.32   13.67
   2  -5   6   -6.73   11.53
   2  -5   6    5.94    3.32
  -2  -5  -6    7.62    3.73
  -2  -5  -6   -6.45   27.36
   2   5  -6    3.82    2.90
  -2   5   6   -5.57   18.85
   2   5  -6    8.08   18.64
  -2   5  -6   -4.26    9.63
   2   5   6  -17.57   21.53
   2   5   6    0.84    3.73
   2  -5  -6    0.88    2.95
  -2  -5   6    1.37    2.75
  -2  -5   6  -20.89   10.91
  -2   5  -6    4.06    2.53
   2  -5  -6  -12.58   10.37
  -2  -5  -7   12.84   18.59
  -2  -5  -7    3.00    3.46
  -2   5   7   23.28   27.21
   2  -5   7   -7.46   15.40
   2   5  -7    4.99    3.44
   2  -5   7    1.87    3.69
   2   5  -7  -12.02   20.73
  -2   5  -7    2.11   12.36
  -2   5  -7    3.02    2.50
   2  -5  -7   -3.28    1.99
  -2  -5   7   -0.95    2.85
   2  -5  -7   -3.28   11.24
   2   5   7   -3.09    3.58
   2   5   7    1.14   26.55
  -2  -5   7    6.95   17.87
  -2  -5  -8    0.56   16.71
   2   5  -8    7.73   16.36
   2  -5   8    4.59   16.65
   2   5  -8    5.03    3.51
  -2   5   8  -28.44   27.49
  -2  -5  -8    4.73    4.45
   2  -5   8    0.76    6.91
   2  -5   8   12.18    4.80
   2   5   8    8.29    6.65
   2  -5  -8   -0.52   21.08
  -2  -5   8    6.67    5.12
  -2   5  -8    1.26    3.18
  -2   5  -8   19.23   16.16
  -2  -5   8   -8.90   19.43
   2  -5  -8    8.93    4.97
   2   5   8    2.46   31.08
  -2   5   9   26.96   39.44
   2   5  -9   12.64   35.25
   2  -5   9   -1.66    5.80
   2  -5   9    5.47   25.83
  -2  -5  -9    2.02   24.11
   2   5  -9    1.83    3.38
  -2  -5  -9    3.29    3.96
   2  -5  -9    0.35    3.24
   2   5   9   -1.26    4.67
  -2   5  -9    2.50    2.99
   2  -5  -9   -4.84   21.93
  -2  -5   9   29.51   33.43
  -2   5  -9   -1.56   23.51
   2   5   9   25.03   64.62
  -2  -5 -10   35.55   31.60
   2   5 -10   -8.08   27.28
  -2  -5 -10    4.97    4.50
   2  -5  10   -2.24   37.22
   2   5 -10    0.10    3.13
  -2   5  10  -52.75   41.54
   2  -5 -10   -6.40   26.80
  -2   5 -10   -0.33    3.08
  -2  -5  10  -46.52   29.38
   2   5  10    7.77   51.34
  -2   5 -10   -8.78   22.13
   2  -5 -10    4.85    4.49
   2   5  10    0.62    5.52
   2  -5  11   67.17   89.13
  -2  -5 -11    2.74    4.25
  -2  -5 -11  -46.30   54.46
   2   5 -11   15.29   39.94
   2   5 -11   -0.90    3.57
  -2   5  11  -26.07   64.55
  -2  -5  11   54.53   51.45
   2   5  11 -146.29  124.26
  -2   5 -11    4.09    4.19
  -2   5 -11  -28.81   25.86
   2  -5 -11    2.39    4.05
   2  -5 -11  -21.05   44.20
   2   5  11    5.04    7.56
   3   5   0  902.28  113.20
  -3   5   0  853.01  112.40
  -3  -5   0  881.31  113.85
   3   5   0  914.74  111.79
   3  -5   0  941.72  112.20
   3  -5   0  937.69  113.43
  -3  -5   0  926.07  113.49
  -3  -5   0  968.20  111.39
   3   5   0  874.91  114.02
   3  -5   1 1288.65  162.78
   3   5  -1 1291.05  163.78
  -3  -5  -1 1330.75  164.81
  -3  -5  -1 1312.29  163.66
  -3   5  -1 1338.52  162.54
   3  -5  -1 1398.07  162.94
   3   5   1 1229.94  164.26
   3   5   1 1266.90  163.28
   3  -5  -1 1342.31  162.72
  -3  -5   1 1319.75  163.27
  -3  -5   1 1406.32  163.89
   3  -5  -1 1379.90  165.81
   3   5  -2  564.71   66.35
   3   5  -2  584.06   69.05
   3  -5   2  545.75   66.16
  -3  -5  -2  487.21   76.39
  -3  -5  -2  542.19   66.71
  -3  -5  -2  523.00   68.67
  -3  -5  -2  497.43   67.09
   3  -5   2  565.99   69.31
   3   5   2  528.29   68.33
   3  -5  -2  572.95   71.59
  -3  -5   2  521.64   67.96
   3  -5  -2  555.24   66.84
  -3   5  -2  563.79   68.34
  -3  -5   2  565.61   66.33
  -3   5  -2  486.71   66.11
  -3  -5  -3 1819.61  215.88
  -3  -5  -3 1714.82  204.65
  -3  -5  -3 1688.99  206.90
   3   5  -3 1646.45  207.12
  -3  -5  -3 1478.39  205.76
   3  -5   3 1685.50  208.62
  -3   5   3 1520.26  212.77
   3   5   3 1630.88  206.43
  -3   5  -3 1751.04  207.39
   3  -5  -3 1830.79  210.29
  -3  -5   3 1706.71  204.28
   3  -5   4  135.94   26.93
  -3  -5  -4  137.61   19.24
  -3  -5  -4  152.47   33.32
  -3   5   4  173.23   36.82
  -3  -5  -4  131.34   21.33
  -3  -5  -4  154.08   25.21
   3   5  -4  149.60   23.47
   3  -5   4  144.79   18.89
   3   5  -4  138.71   18.88
  -3  -5   4  143.20   27.25
   3  -5  -4  156.61   19.49
  -3   5  -4  145.39   18.61
   3   5   4  165.11   42.18
  -3  -5   4  158.73   19.15
   3  -5  -4  152.91   28.82
  -3   5  -4  184.31   24.63
   3   5   4  130.20   20.75
   3  -5   5  339.25   49.73
   3  -5   5  314.61   43.45
   3  -5   5  308.38   39.83
   3   5  -5  323.50   44.95
  -3  -5  -5  365.09   54.18
  -3  -5  -5  348.31   40.35
  -3  -5  -5  325.84   42.93
   3   5  -5  305.65   39.73
  -3   5  -5  314.61   39.44
  -3   5  -5  283.79   45.05
   3   5   5  285.33   41.79
  -3  -5   5  336.68   47.85
   3  -5  -5  295.73   47.84
  -3  -5   5  307.36   39.95
   3  -5  -5  334.53   40.44
  -3  -5  -6  163.34   22.34
   3  -5   6  164.50   22.14
  -3  -5  -6  154.54   38.10
   3  -5   6  188.88   26.26
  -3  -5  -6  162.86   25.17
  -3   5   6  154.38   38.86
   3   5  -6  161.91   21.98
   3  -5   6  233.75   41.34
   3   5  -6  202.07   36.65
  -3  -5   6  175.75   35.39
  -3  -5   6  166.96   22.29
   3   5   6  153.75   24.12
  -3   5  -6  156.21   29.93
   3   5   6  133.59   45.85
   3  -5  -6  142.86   30.63
   3  -5  -6  172.01   22.68
  -3   5  -6  176.11   21.70
   3  -5   7  429.14   50.19
   3   5  -7  400.87   49.60
   3  -5   7  370.24   53.68
  -3   5   7  403.56   79.52
   3   5  -7  381.59   57.22
  -3  -5  -7  406.82   50.03
  -3  -5  -7  493.44   83.59
  -3  -5   7  367.49   49.80
   3   5   7  359.20   52.11
  -3   5  -7  402.41   49.23
  -3  -5   7  410.68   63.42
   3  -5  -7  355.79   49.98
   3  -5  -7  458.87   62.53
  -3   5  -7  420.31   59.28
   3   5   7  333.22   72.77
   3   5  -8   59.94   23.17
  -3   5   8   55.78   35.12
   3  -5   8   17.01   21.25
   3  -5   8   77.94   18.90
  -3  -5  -8   46.38   26.19
   3   5  -8   75.23   12.43
  -3  -5  -8   73.81   12.79
  -3  -5   8   91.44   34.01
  -3   5  -8   62.88   11.15
  -3  -5   8   70.53   13.39
  -3   5  -8   45.56   22.20
   3  -5  -8  128.03   33.24
   3   5   8   27.03   41.30
   3  -5  -8   79.69   13.94
   3   5   8   70.90   15.88
  -3  -5  -9   99.71   46.56
   3   5  -9  118.49   17.29
   3   5  -9  102.21   31.53
   3  -5   9   64.27   41.42
  -3  -5  -9  113.88   17.31
  -3   5   9  111.85   47.63
  -3   5  -9  103.34   32.00
  -3  -5   9   86.59   37.12
   3  -5  -9  169.79   41.22
   3   5   9  144.08   21.02
   3  -5  -9  110.08   17.76
  -3   5  -9  135.38   17.00
   3   5   9  107.45   68.59
   3   5 -10   59.84   10.67
   3  -5  10    7.21   54.51
  -3  -5 -10   44.41    9.85
   3   5 -10   19.73   22.89
  -3  -5 -10   70.90   68.51
  -3   5  10   28.75   99.14
  -3  -5  10   33.97   30.75
   3   5  10   34.84   14.38
   3   5  10  -41.96   57.65
  -3   5 -10   47.88   29.86
   3  -5 -10   40.86   10.70
  -3   5 -10   57.92   10.34
   3  -5 -10   10.44   25.66
   3   5 -11   81.61   35.00
   3  -5  11   23.07   54.03
  -3  -5 -11   35.38   43.07
  -3   5  11  -25.05   64.61
  -3   5 -11    5.30   30.30
  -3  -5  11    8.92   46.87
   3  -5 -11    0.17   29.55
   4  -5   0    0.27    3.28
   4   5   0   -0.81    1.60
   4   5   0    3.93    4.66
   4   5   0    3.09    3.61
  -4  -5   0    3.18    4.19
  -4  -5   0    1.07    1.01
  -4  -5   0    6.05    4.58
  -4  -5  -1   -4.61    4.00
   4   5  -1    2.48    4.52
  -4  -5  -1    0.39    1.32
   4   5  -1   -0.17    2.52
  -4  -5  -1    2.55    1.33
  -4  -5  -1    1.79    3.13
   4  -5   1    2.18    1.12
   4   5  -1    1.80    1.42
   4  -5   1   -1.02    2.64
   4  -5   1   -2.65    3.32
   4  -5  -1   12.55    5.94
  -4  -5   1   -0.18    3.64
  -4  -5   1    0.62    1.02
   4   5   1    0.28    2.49
   4  -5  -1    6.09    3.50
   4   5   1    2.65    2.02
  -4  -5   1    1.86    3.49
  -4   5  -1    1.00    2.55
   4  -5  -1    4.82    2.89
  -4  -5  -2   10.54    7.15
   4  -5   2    0.54    1.20
  -4  -5  -2   -0.25    1.56
  -4  -5  -2    5.13    2.27
   4   5  -2    1.54    4.49
  -4  -5  -2  -11.15   13.99
   4  -5   2   -0.81    3.30
   4   5  -2    1.66    1.57
   4  -5   2    2.70    5.17
  -4  -5  -2    3.79    4.45
  -4  -5   2    1.23    1.39
   4   5   2   -1.97    2.22
  -4  -5   2   -2.40    2.60
   4  -5  -2    1.30    2.69
   4  -5  -2   -6.77    5.16
  -4  -5   2    4.88    5.24
   4   5   2    5.62    2.81
  -4   5  -2    5.55    3.79
  -4  -5  -3   -6.63   13.09
  -4  -5  -3    3.15    7.97
   4   5  -3   -5.36    4.46
   4  -5   3    1.73    4.45
  -4   5   3   -2.29   12.46
  -4  -5  -3    2.54    2.05
  -4  -5  -3   -0.59    3.66
   4  -5   3    2.51    1.64
   4  -5   3   -1.00    7.37
   4   5  -3   -0.18    1.40
  -4  -5  -3    4.82    2.94
   4   5   3   10.87    5.17
   4  -5  -3   10.59    8.48
  -4   5  -3    3.51    4.88
  -4   5  -3    1.17    1.34
  -4  -5   3   -0.53    1.49
  -4  -5   3   -6.26    5.53
  -4  -5   3   -0.01    3.09
  -4  -5  -4    9.83    4.90
   4   5  -4    1.49    1.76
   4  -5   4    1.97    1.81
   4   5  -4   -0.33    5.94
  -4  -5  -4    5.92    5.67
   4  -5   4    2.65    5.75
  -4  -5  -4   10.16   14.42
  -4  -5  -4    1.14    2.07
  -4   5   4   -9.14   13.76
   4  -5   4    3.03    9.28
   4  -5  -4    0.08    2.08
  -4   5  -4    1.92    1.58
  -4  -5   4    6.91    3.96
  -4   5  -4    8.42    6.91
   4   5   4    0.47    3.69
  -4  -5   4    1.01    8.73
  -4  -5   4    2.46    2.05
   4  -5  -4    8.28    8.55
  -4  -5  -5   -0.71    1.95
   4   5  -5    2.94    2.30
  -4  -5  -5    5.36    5.55
   4   5  -5   -7.87    6.74
  -4   5   5  -28.86   16.10
   4  -5   5   -0.78   13.47
  -4  -5  -5   -6.03   15.63
   4  -5   5    4.15    5.42
   4  -5   5   -0.26    1.90
  -4  -5  -5   -0.83    3.85
   4  -5  -5    4.99    9.83
  -4   5  -5    3.75    9.50
   4  -5  -5   -0.32    1.99
  -4   5  -5    0.44    1.64
   4   5   5   21.61   25.82
   4   5   5   14.01    5.82
  -4  -5   5    3.02    2.23
  -4   5   6  -10.99   21.55
  -4  -5  -6   -3.66   18.48
  -4  -5  -6    0.60    2.74
   4   5  -6   -8.54    9.36
   4  -5   6   -0.16    4.43
   4  -5   6  -11.76   15.20
  -4  -5  -6    8.99    6.26
   4  -5   6    2.04    3.08
   4   5  -6    0.68    2.65
   4   5   6   33.48   29.82
  -4   5  -6   -8.01   10.36
   4  -5  -6  -21.41   11.05
   4  -5  -6   -1.61    2.02
  -4  -5   6   11.53   13.62
  -4  -5   6    2.22    2.81
   4   5   6    4.41    5.39
  -4   5  -6    3.81    2.41
   4  -5   7    1.12    5.58
   4   5  -7    4.46    3.37
   4   5  -7   10.16   14.75
   4  -5   7    2.84    3.36
  -4  -5  -7   -2.34    2.23
  -4  -5  -7   38.47   21.99
   4  -5   7   27.29   20.97
   4   5   7    1.43    5.36
  -4   5  -7   -0.53    2.04
  -4  -5   7    6.54    3.74
   4  -5  -7   -2.88    2.47
  -4  -5   7  -10.23   16.11
  -4   5  -7    7.70   14.74
   4  -5  -7   11.35   15.37
   4   5   7  -18.34   31.43
   4   5  -8   -1.76   14.18
  -4  -5  -8   22.01   22.47
  -4  -5  -8    2.79    3.70
   4   5  -8    1.25    2.75
   4  -5   8  -19.66   27.38
  -4   5   8   17.02   33.29
   4  -5   8    6.32    5.68
  -4   5  -8   22.94   17.48
   4  -5  -8    3.32    3.65
   4  -5  -8  -14.48   14.74
  -4  -5   8    3.31    3.94
  -4   5  -8    3.55    2.94
   4   5   8  -55.05   54.11
   4   5   8    2.75    5.89
  -4  -5   8   -7.25   22.57
  -4   5   9  -23.58   40.03
   4  -5   9   -4.26   34.28
  -4  -5  -9    4.09    4.06
   4   5  -9   -0.04    3.26
  -4  -5  -9  -40.74   29.35
   4   5  -9    0.97   19.04
  -4   5  -9  -11.87   20.44
  -4  -5   9    4.68    4.74
  -4   5  -9    5.23    3.54
   4   5   9  -67.47   52.67
   4  -5  -9    0.63    3.36
   4   5   9   -3.25    6.36
  -4  -5   9  -30.03   28.56
   4  -5  -9   -3.76   21.95
   4   5 -10   26.21   26.22
   4   5 -10    3.59    4.16
  -4  -5 -10   36.70   34.51
  -4  -5 -10    2.22    4.22
   4  -5  10  -72.90   43.44
  -4   5  10  -27.88   50.91
  -4   5 -10    2.31    3.62
  -4   5 -10   14.36   25.92
   4  -5 -10   -3.68    3.04
  -4  -5  10    6.38   33.03
   4  -5 -10  -29.26   23.05
  -4  -5 -11  -32.64   44.89
   4  -5  11   26.55   66.08
  -4  -5 -11   -3.46    2.74
   4   5 -11  -25.40   25.55
   4   5 -11    2.48    4.63
  -4   5  11  -88.35   67.70
  -4   5 -11    5.83    4.15
   4   5  11  -70.58   80.62
   4  -5 -11    2.14    3.61
  -4  -5  11    6.58   53.40
  -4   5 -11   22.79   32.01
   4  -5 -11  -17.24   32.72
   5   5   0  455.18   62.98
   5   5   0  481.78   60.24
  -5  -5   0  505.08   63.39
   5  -5   0  484.88   62.66
  -5  -5   0  514.12   62.85
   5   5   0  490.14   62.74
  -5  -5  -1 1584.29  194.47
   5   5  -1 1592.84  193.48
   5  -5   1 1552.79  190.47
   5   5  -1 1497.44  193.80
  -5  -5  -1 1656.57  194.61
   5  -5   1 1628.21  194.37
  -5  -5  -1 1541.51  190.38
   5   5   1 1488.11  193.74
  -5  -5   1 1549.95  193.86
   5  -5  -1 1578.85  193.07
  -5  -5   1 1581.49  193.46
   5  -5   2  490.85   68.45
   5  -5   2  545.60   68.73
  -5  -5  -2  521.04   64.63
  -5  -5  -2  542.95   64.71
   5   5  -2  527.26   68.13
  -5  -5  -2  540.84   77.74
   5  -5   2  538.15   64.60
  -5  -5  -2  552.05   69.09
   5   5  -2  519.98   64.88
  -5  -5  -2  596.44   70.78
  -5  -5   2  528.41   68.39
  -5   5  -2  535.49   66.39
   5   5   2  498.94   67.91
   5  -5  -2  505.19   66.42
  -5  -5   2  521.35   67.61
  -5  -5   2  522.16   64.58
   5  -5  -2  504.84   66.36
   5  -5  -2  549.60   66.93
   5  -5   3  277.12   40.42
   5   5  -3  281.97   36.61
   5  -5   3  290.75   42.85
   5   5  -3  269.46   39.87
  -5  -5  -3  294.93   36.55
  -5   5   3  357.18   53.57
  -5  -5  -3  382.99   52.48
  -5  -5  -3  263.43   40.26
  -5  -5  -3  388.04   46.43
   5  -5   3  292.05   36.46
  -5  -5  -3  296.80   36.97
  -5  -5   3  280.72   41.41
   5  -5  -3  277.97   40.26
  -5  -5   3  295.23   39.20
   5  -5  -3  301.43   37.43
  -5   5  -3  319.97   39.83
  -5  -5   3  291.53   36.48
   5  -5   4  120.25   16.96
  -5  -5  -4  141.06   21.58
  -5   5   4  182.11   37.12
  -5  -5  -4  221.99   39.57
  -5  -5  -4  137.53   18.46
   5   5  -4  131.25   17.10
   5   5  -4  170.21   25.50
  -5  -5  -4  125.46   16.99
   5  -5   4   93.65   24.42
   5   5   4  156.32   20.93
  -5  -5   4  129.55   24.45
  -5  -5   4  125.11   19.13
  -5   5  -4  121.94   16.41
   5  -5  -4  120.86   17.33
  -5  -5   4  138.12   17.08
   5  -5  -4  157.78   25.66
  -5   5  -4  162.01   24.80
  -5  -5  -5  318.25   50.80
  -5  -5  -5  386.18   49.29
   5  -5   5  287.66   60.82
   5  -5   5  414.62   54.27
  -5  -5  -5  413.33   54.53
   5  -5   5  393.92   49.48
   5   5  -5  459.57   55.24
  -5   5   5  428.36   70.38
  -5  -5  -5  466.81   65.65
   5   5  -5  415.44   49.46
   5   5   5  372.06   52.69
  -5   5  -5  408.92   48.82
  -5  -5   5  387.33   51.37
   5  -5  -5  404.31   49.88
  -5  -5   5  393.70   49.42
   5  -5  -5  403.28   56.58
  -5  -5   5  386.40   57.35
  -5   5  -5  391.98   55.16
  -5  -5  -6   73.57   18.34
  -5  -5  -6   36.16   23.41
   5  -5   6   82.57   20.40
   5  -5   6    8.21   22.45
   5   5  -6   68.70   10.95
  -5   5   6   61.53   28.18
  -5  -5  -6   57.31   15.01
   5  -5   6   70.58    9.74
  -5  -5  -6   58.88    9.30
   5   5  -6   47.00   15.07
  -5  -5   6   76.54   11.55
   5  -5  -6   78.75   12.37
   5   5   6  -25.77   28.53
  -5   5  -6   57.46    8.71
   5  -5  -6   17.96   17.19
   5   5   6   99.81   20.50
  -5  -5   6   80.02   14.82
  -5   5  -6   58.76   19.34
  -5   5   7  141.21   41.07
   5   5  -7   78.76   22.72
  -5  -5  -7  100.33   13.69
  -5  -5  -7   83.11   33.99
   5  -5   7  104.98   14.29
  -5  -5  -7   95.26   20.38
   5  -5   7   76.34   32.59
   5   5  -7   86.43   13.61
   5  -5   7  136.70   31.90
  -5  -5   7   57.63   25.49
  -5  -5   7  103.00   15.37
   5   5   7  144.34   23.74
  -5  -5   7   89.08   13.80
   5   5   7   66.40   42.07
  -5   5  -7   90.89   13.00
   5  -5  -7   90.86   14.15
  -5   5  -7  127.89   27.32
   5  -5  -7  128.03   30.57
   5   5  -8   41.55    8.95
   5   5  -8   26.30   17.49
  -5   5   8   29.14   38.33
  -5  -5  -8   45.79   33.22
  -5  -5  -8   46.94    8.73
  -5  -5  -8   51.26   15.00
   5  -5   8   38.85   34.68
   5  -5  -8   47.88   10.01
   5  -5  -8   73.30   26.17
  -5   5  -8   43.28    8.15
   5   5   8   28.61   50.13
  -5  -5   8   49.29   28.27
  -5  -5   8   52.51   11.54
  -5   5  -8   10.14   20.05
  -5  -5   8   49.64    9.88
   5  -5   9  109.85   48.23
   5   5  -9   95.19   15.74
  -5  -5  -9   86.15   38.53
   5   5  -9  114.55   28.42
  -5  -5  -9  123.88   16.06
  -5  -5   9  119.83   17.61
   5  -5  -9   55.97   30.44
  -5   5  -9  212.54   41.94
  -5  -5   9  110.98   16.51
   5  -5  -9  103.34   16.33
  -5  -5   9   76.72   39.15
  -5  -5 -10   39.72   39.81
  -5  -5 -10   32.33    7.93
   5   5 -10   32.67   25.77
  -5   5  10   18.12   58.08
   5  -5  10  -57.49   57.14
   5   5 -10   46.66    9.70
   5  -5 -10   44.64    9.50
  -5  -5  10  -12.91   38.96
  -5   5 -10   70.30   34.62
  -5   5 -10   37.82    7.97
   5   5  10  124.18   75.27
  -5  -5  10   43.92   11.08
   5  -5 -10  -13.65   29.31
   6   5   0   -0.64    6.71
   6   5   0    0.90    1.89
  -6  -5   0   -1.20    5.03
   6  -5   0    0.06    3.15
   6   5   0    5.41    3.73
  -6  -5   0    0.40    3.84
  -6  -5  -1   -3.07    3.07
  -6  -5  -1   27.10   19.57
   6  -5   1    1.97    3.82
  -6  -5  -1    0.07    5.33
   6   5  -1    2.83    1.84
   6   5  -1    0.19    3.55
   6  -5   1    3.58    1.06
   6   5  -1    1.30    6.39
  -6  -5   1    3.69    4.88
   6  -5  -1    1.91    3.25
  -6  -5   1   -1.14    5.23
   6   5   1   -3.56    2.23
   6   5   1    5.80    2.54
   6   5  -2   -3.66    6.56
   6  -5   2   -0.39   10.82
   6   5  -2   -0.07    1.44
  -6  -5  -2    7.46    6.19
  -6  -5  -2    2.09    8.01
   6  -5   2    3.83    5.51
  -6  -5  -2   10.77   18.30
   6  -5   2    0.76    1.19
   6   5   2   -0.43    2.85
  -6  -5   2    2.41    3.74
  -6  -5   2   -7.69    5.41
   6   5   2    9.91    3.24
  -6   5  -2   -5.41    3.81
   6  -5  -2    1.34    3.06
  -6  -5  -3   -4.42    9.90
  -6  -5  -3    1.63    5.25
   6  -5   3   -0.24    1.42
   6  -5   3    7.05    7.62
  -6  -5  -3    0.87    1.25
   6  -5   3    2.47   12.20
   6   5  -3   -1.25    6.76
  -6  -5  -3   -0.70    1.00
  -6  -5  -3   24.58   18.03
   6   5  -3    0.59    1.71
  -6  -5   3   -2.06    7.17
   6  -5  -3   -1.72    2.10
  -6  -5   3   -3.11    2.72
   6   5   3    4.72    5.58
  -6   5  -3   11.62    6.56
   6  -5  -3   -5.86    5.86
  -6  -5  -4   -5.94   12.40
   6   5  -4   -0.53    7.47
   6   5  -4    3.29    2.31
   6  -5   4    3.55    3.34
   6  -5   4    6.19    2.70
  -6   5   4   51.63   21.57
  -6  -5  -4  -12.65   16.36
  -6  -5  -4    3.27    2.37
  -6  -5  -4    8.01    7.22
   6  -5   4   12.78   14.96
  -6  -5  -4   -0.03    1.54
   6  -5  -4    7.75    8.64
   6  -5  -4   -0.34    2.21
   6   5   4   -3.81    2.67
  -6  -5   4    0.33    8.08
  -6   5  -4    3.00    7.27
  -6  -5   4   -0.35    3.24
  -6  -5   4    2.22    1.83
  -6   5   5   -0.68   22.80
   6  -5   5    1.18    2.34
  -6  -5  -5    3.56    3.18
  -6  -5  -5    3.84    2.28
   6   5  -5    0.06    2.00
  -6  -5  -5  -16.79   17.94
   6  -5   5  -23.36   18.55
   6   5  -5   -4.47    8.68
  -6  -5  -5   -1.27    5.58
   6  -5   5    7.63    6.80
  -6  -5   5    3.28    3.30
   6  -5  -5    3.36    2.82
  -6  -5   5    2.33    2.25
  -6  -5   5   15.00   13.44
   6  -5  -5    1.34    9.82
  -6   5  -5   15.65   10.48
   6   5   5   -0.33    4.42
   6   5  -6  -11.06    9.72
  -6  -5  -6    0.03    6.11
   6  -5   6   23.83   24.06
  -6   5   6   27.60   26.90
   6   5  -6   -0.90    2.46
  -6  -5  -6    0.85    2.33
  -6  -5  -6  -16.76   20.56
   6  -5   6    9.57    4.33
  -6  -5  -6    5.83    4.21
   6   5   6    9.37    7.12
  -6  -5   6    2.35    4.35
   6  -5  -6    5.28    3.94
   6  -5  -6   -6.79   11.09
  -6   5  -6    1.83    2.06
  -6   5  -6   -7.70   11.67
  -6  -5   6   -1.10    2.22
  -6  -5   6   -9.55   13.74
   6   5  -7    2.51   13.69
  -6  -5  -7   -0.03    2.45
  -6  -5  -7    8.80   22.45
   6  -5   7    7.74    4.63
  -6  -5  -7    7.26    6.26
   6  -5   7   32.72   46.96
  -6   5   7   -4.18   33.92
   6   5  -7   -2.10    2.33
  -6  -5  -7   11.65    7.10
  -6   5  -7   -0.12    2.12
  -6  -5   7   -6.19   19.77
  -6   5  -7   23.32   15.53
  -6  -5   7    1.17    3.21
  -6  -5   7    3.70    4.19
   6  -5  -7   25.54   15.67
   6  -5  -7    1.21    3.22
   6   5  -8    2.87    3.41
  -6   5   8  -63.52   36.91
   6   5  -8   17.21   18.20
  -6  -5  -8  -42.07   26.87
  -6  -5  -8    8.92    3.92
  -6  -5  -8    2.62    6.46
   6  -5   8  -27.76   38.29
  -6  -5   8    0.30    3.54
   6  -5  -8  -26.77   18.19
  -6   5  -8   -0.03    2.38
  -6   5  -8   29.87   19.70
  -6  -5   8   12.30   30.56
   6  -5  -8    2.87    3.79
  -6  -5   8   -2.34    3.37
  -6  -5  -9   -2.26    5.52
  -6  -5  -9    1.07    2.95
   6  -5   9  -42.99   50.33
   6   5  -9    3.99   19.68
   6   5  -9   -0.63    3.01
  -6   5   9  -46.43   43.64
  -6  -5  -9    6.38   33.63
  -6  -5   9    0.26    4.00
   6   5   9   57.92   64.57
  -6   5  -9   26.27   25.12
  -6  -5   9   18.63   39.94
   6  -5  -9   -3.05    2.87
  -6   5  -9    0.38    2.49
   6  -5  -9    2.17   19.32
  -6  -5 -10  -24.24   36.75
   6   5 -10    1.85    4.20
   6   5 -10   69.51   29.11
  -6   5  10  -61.57   54.85
  -6  -5 -10    3.49    3.29
   6  -5  10  -32.95   65.87
   6  -5 -10    6.09    5.09
  -6  -5  10    0.21    4.12
   6   5  10  190.00   96.54
  -6   5 -10   22.48   31.34
   6  -5 -10   16.91   27.47
  -6   5 -10    6.83    3.81
  -6  -5  10   -1.93   39.85
   7  -5   0  118.74   18.43
   7   5   0  118.26   22.26
  -7  -5   0  123.91   18.95
  -7  -5   0  166.62   27.81
   7   5   0  105.15   15.41
  -7  -5  -1  417.64   57.81
   7   5  -1  461.66   52.91
   7  -5   1  464.38   52.10
  -7  -5  -1  412.62   67.05
   7   5  -1  402.43   55.88
   7   5  -1  426.96   56.73
  -7  -5  -1  459.68   56.55
   7  -5   1  376.11   56.45
   7   5   1  376.05   56.29
  -7  -5   1  416.34   55.91
   7   5   1  367.61   53.56
  -7  -5   1  460.31   57.58
   7  -5  -1  437.70   56.08
   7   5  -2  255.85   35.72
  -7  -5  -2  302.19   50.76
  -7  -5  -2  191.14   35.61
   7  -5   2  241.59   34.91
   7  -5   2  241.89   30.06
   7   5  -2  238.45   30.50
  -7  -5  -2  265.57   36.36
   7  -5  -2  245.72   33.00
  -7  -5   2  256.84   35.36
  -7  -5   2  249.62   34.80
   7   5  -3  385.11   48.98
   7  -5   3  420.96   60.35
   7   5  -3  371.21   53.75
  -7  -5  -3  512.37   58.89
   7  -5   3  396.98   54.11
  -7  -5  -3  426.81   55.60
   7  -5   3  381.99   48.77
  -7  -5  -3  453.66   64.48
  -7  -5   3  396.56   52.86
  -7   5  -3  395.43   51.24
   7  -5  -3  380.03   48.98
   7   5   3  391.80   53.56
  -7  -5   3  432.87   55.04
   7  -5  -3  367.36   50.70
   7  -5   4   50.56    8.45
  -7  -5  -4   50.91   16.16
  -7  -5  -4  109.65   26.38
   7  -5   4   24.48   24.48
  -7  -5  -4   84.40   26.78
   7   5  -4   61.76    8.66
   7   5  -4   66.78   16.34
   7  -5   4   53.29   16.31
  -7   5  -4   59.23   14.06
   7  -5  -4   65.23   12.07
   7   5   4   76.48   19.00
   7  -5  -4   66.36   14.63
   7  -5  -4   61.46    8.82
  -7  -5   4   79.75   15.48
  -7  -5   4   41.62   16.49
   7   5  -5  102.58   21.17
  -7  -5  -5  111.65   12.63
   7   5  -5   84.13   12.69
  -7   5   5   44.14   30.31
   7  -5   5   97.14   13.06
  -7  -5  -5   81.18   27.83
  -7  -5  -5   54.25   27.57
  -7  -5  -5   86.27   11.92
  -7  -5  -5   90.92   21.69
   7  -5  -5  118.21   21.30
  -7  -5   5   87.77   24.84
   7  -5  -5   91.37   13.17
  -7  -5   5  147.61   22.49
  -7   5  -5   56.70   18.28
  -7  -5  -6   81.09   20.82
  -7  -5  -6   92.27   27.35
  -7  -5  -6   79.72   11.71
   7  -5   6   96.17   13.24
  -7  -5  -6  106.81   13.38
  -7   5   6  106.16   37.01
   7   5  -6   90.64   12.66
   7   5  -6   93.77   21.44
  -7  -5  -6   53.79   29.48
   7  -5  -6   68.92   20.61
  -7  -5   6   29.44   20.95
   7  -5  -6   83.74   12.94
  -7  -5   6  109.24   15.66
  -7   5   7  122.64   48.98
   7   5  -7  151.92   18.77
  -7  -5  -7  136.05   17.70
  -7  -5  -7  163.71   33.96
   7   5  -7  141.74   29.80
   7  -5   7  124.35   19.73
  -7  -5  -7   90.19   36.31
  -7  -5  -7  123.24   19.87
   7  -5   7   92.63   45.73
  -7   5  -7  155.08   32.48
  -7   5  -7  128.19   17.12
   7  -5  -7  151.73   19.19
  -7  -5   7  161.27   40.23
  -7  -5   7  124.45   20.36
   7  -5  -7  143.96   30.92
   7  -5   8   31.94   50.53
   7   5  -8   16.48   19.57
  -7  -5  -8   27.96    8.87
   7   5  -8   19.56    5.64
  -7   5   8  -30.91   43.72
  -7  -5  -8   26.67   35.14
  -7  -5  -8   19.89    4.23
  -7  -5   8   23.96    8.35
   7  -5  -8   17.98    5.88
  -7  -5   8   -0.09   29.45
  -7   5  -8  -32.45   18.34
  -7   5  -8   15.14    4.08
  -7   5  -8    3.20    4.34
   7  -5  -8   12.98   17.83
   7  -5   9  -10.37   61.83
  -7   5   9 -102.72   50.43
  -7  -5  -9    5.40   37.31
   7   5  -9   73.38   22.60
  -7   5  -9   -0.09    3.66
  -7  -5   9   24.05   38.47
  -7   5  -9   -6.53   25.94
   7  -5  -9   81.98   25.17
   8   5   0    7.13    3.33
   8  -5   0    6.03    5.71
   8   5   0    5.74    5.83
  -8  -5   0    0.46    6.72
  -8  -5   0   -0.11    6.10
  -8  -5  -1   -1.13    5.21
   8   5  -1  -17.03    8.96
   8  -5   1    1.23    0.91
   8   5  -1    0.66    4.87
  -8  -5  -1   -5.62    6.37
  -8  -5  -1  -21.18   21.58
   8  -5   1   -0.71    4.17
   8   5  -1    2.86    2.33
  -8  -5   1  -11.71    6.66
   8  -5  -1    5.53    4.99
   8   5   1   10.34    3.19
   8   5   1   13.13    5.98
  -8  -5  -2   13.60    9.25
   8   5  -2    1.97    4.60
  -8  -5  -2  -10.19    8.60
  -8  -5  -2   11.00   20.55
   8   5  -2    1.66    2.21
   8  -5   2    5.02    7.27
   8  -5   2    1.35    1.45
   8   5  -2   -8.93    9.66
  -8  -5   2    2.57    6.18
   8  -5  -2    5.81    5.35
   8   5   2   11.04    3.55
   8   5   2    9.99    5.65
  -8  -5   2   -4.14    8.45
  -8  -5  -3   -7.21   18.76
   8  -5   3    2.84    2.06
  -8  -5  -3  -15.83   12.21
   8   5  -3   -1.57   11.21
  -8  -5  -3    6.15    7.54
   8  -5   3   -5.01    4.35
   8   5  -3    3.23    2.19
   8  -5  -3    0.11    1.81
  -8   5  -3   -0.65    5.74
  -8  -5   3   -1.57    4.36
   8  -5  -3    6.82    4.85
  -8  -5   3   21.80   10.52
  -8  -5  -4    4.63   18.48
  -8  -5  -4  -14.93   20.80
   8   5  -4    3.12    2.44
   8  -5   4  -24.57   24.29
  -8  -5  -4    2.14    7.46
   8  -5   4    1.74    2.69
   8   5  -4  -14.23   10.78
   8  -5  -4    5.69    3.44
  -8  -5   4    7.70    4.78
   8  -5  -4    4.95    2.95
  -8   5  -4   11.42    8.87
   8  -5  -4   -5.96    7.66
  -8  -5   4   -4.74   14.03
   8   5  -5   -1.84   13.20
  -8  -5  -5   27.22   25.28
   8   5  -5    2.23    2.53
   8  -5   5  -16.08   31.11
  -8  -5  -5   -6.99   22.10
   8  -5   5   -1.67    2.55
  -8  -5  -5    0.94    5.99
  -8  -5   5    2.63    4.12
  -8  -5   5    6.59   16.50
  -8   5  -5   14.88   11.52
   8  -5  -5   -2.22    1.95
   8  -5  -5   13.66   10.26
   8   5  -6   -7.55   13.52
  -8  -5  -6    5.04    2.57
  -8  -5  -6   -4.75    6.20
   8  -5   6    2.55    3.68
   8   5  -6    4.32    3.29
  -8   5   6    6.44   35.09
  -8  -5  -6   -5.11   25.51
  -8  -5  -6    2.36    1.18
  -8  -5  -6   44.58   29.11
   8  -5  -6   -7.19   13.08
  -8  -5   6   -2.32    4.34
  -8  -5   6    0.20   21.44
   8  -5  -6    2.72    3.13
  -8   5  -6   -0.07   13.39
  -8  -5  -7   13.73   25.87
   8   5  -7    0.68    2.85
   8  -5   7   10.04   43.34
  -8  -5  -7   -0.75    2.26
  -8   5   7   27.98   42.40
   8   5  -7   -1.01   16.84
  -8  -5  -7    0.11    1.52
  -8  -5  -7  -12.41   29.50
   8  -5  -7  -21.81   16.14
  -8  -5   7   -2.06    3.62
   8  -5  -7    0.59    3.01
  -8  -5   7  -40.11   26.94
  -8   5  -7   -5.58   16.54
   8   5  -8  -38.12   19.24
  -8  -5  -8  -21.02   27.99
  -8  -5  -8  -33.88   32.25
  -8  -5  -8    0.93    3.00
   8  -5   8  -10.40   54.31
   8   5  -8   -0.86    2.76
  -8  -5  -8    0.03    2.00
  -8   5   8   83.00   56.32
  -8   5  -8   41.23   21.87
   8  -5  -8   20.39   21.50
  -8  -5   8    9.57    5.50
   8  -5  -8    5.56    4.41
  -8  -5   8   -5.59   33.31
  -9  -5   0   92.91   17.60
   9  -5   0   76.23   17.93
  -9  -5   0  132.47   26.92
  -9  -5   0   83.31   29.83
   9   5   0   98.30   13.55
  -9  -5  -1  208.25   41.11
   9  -5   1  215.39   24.95
   9   5  -1  222.40   30.71
   9  -5   1  211.26   31.35
  -9  -5  -1  198.02   29.86
   9   5  -1  200.51   26.15
  -9  -5  -1  234.18   33.44
  -9  -5   1  202.82   31.79
  -9  -5   1  182.74   30.39
   9   5   1  161.96   26.70
   9  -5  -1  197.64   29.78
  -9  -5  -2   58.11   16.92
   9   5  -2   32.43   13.68
  -9  -5  -2   43.93   22.90
   9  -5   2   43.25    5.84
   9   5  -2   45.63    7.61
  -9  -5  -2   37.06   12.57
   9   5  -2   41.52   11.86
   9  -5  -2   42.23    5.83
   9  -5  -2   45.72   12.29
  -9  -5   2   51.55   14.27
  -9  -5   2   53.80   15.40
   9   5   2   19.29    7.69
  -9  -5  -3   89.99   23.56
   9  -5   3  122.68   16.35
   9   5  -3  118.44   16.54
  -9  -5  -3  141.96   30.91
  -9  -5  -3  105.45   30.56
   9   5  -3  144.51   26.67
   9  -5  -3  122.81   16.28
  -9  -5   3  161.02   22.67
   9  -5  -3  135.80   19.59
  -9  -5   3  144.43   27.41
   9  -5   4   83.27   11.97
  -9  -5  -4  146.44   28.08
   9   5  -4   78.58   20.82
  -9  -5  -4   94.41   31.40
  -9  -5  -4   85.45   26.01
   9   5  -4   84.21   11.79
  -9  -5   4  131.66   24.05
  -9   5  -4   71.52   15.97
   9  -5  -4   99.39   14.49
   9  -5  -4   76.31   11.61
  -9  -5   4   56.47   22.08
   9   5  -5  114.99   28.07
   9   5  -5  127.53   16.83
  -9  -5  -5   65.44   32.14
   9  -5   5  137.11   17.35
  -9  -5  -5  156.74   33.23
  -9  -5  -5   97.44   34.77
  -9  -5   5   96.65   30.59
  -9  -5   5  129.41   24.97
  -9   5  -5   86.60   21.59
   9  -5  -5  120.38   16.86
   9  -5  -5  163.20   23.84
   9  -5   6   21.98   45.87
   9  -5   6    8.30    5.76
  -9  -5  -6   36.88   31.11
   9   5  -6    4.10   18.51
  -9  -5  -6   67.90   36.11
  -9  -5  -6   33.01   14.06
   9   5  -6   23.27    5.54
  -9  -5   6   11.53    8.61
   9  -5  -6   38.84   16.11
   9  -5  -6   27.12    6.07
  -9  -5   6   -3.80   24.72
  -9   5  -6   30.68   15.65
   9   5  -7   53.33   10.66
  -9  -5  -7    7.15   33.99
  -9   5   7   63.01   53.18
  -9  -5  -7    5.48   35.97
   9   5  -7  101.38   27.99
  -9   5  -7    4.44   21.16
  -9  -5   7   72.89   16.36
   9  -5  -7   78.29   24.02
  -9  -5   7   71.06   36.41
   9  -5  -7   82.72   12.48
 -10  -5   0    8.75    6.60
  10   5   0   16.05    4.42
 -10  -5   0  -18.58   18.78
 -10  -5  -1    9.97    8.60
 -10  -5  -1   -0.70    7.03
 -10  -5  -1   -3.49   17.78
  10   5  -1    4.97    2.84
  10  -5  -1   -3.91    3.61
  10   5   1    3.58    2.86
 -10  -5   1    3.91    7.31
  10   5  -2    0.25    2.22
  10  -5   2    2.35    2.09
 -10  -5  -2    8.38   10.14
 -10  -5  -2   -0.69    9.56
 -10  -5  -2   -6.46   17.99
 -10  -5   2    8.91   13.20
 -10  -5   2    2.25    6.04
  10  -5  -2    0.91    4.87
  10  -5  -2    1.62    1.52
 -10  -5  -3  -15.27   20.97
 -10  -5  -3    4.00    9.08
  10  -5   3   -0.27    2.33
  10   5  -3    0.58    2.18
 -10  -5  -3   -9.86   12.32
  10   5  -3  -10.11   14.63
  10  -5  -3   -0.97    4.53
 -10  -5   3   -1.34    4.85
 -10  -5   3  -12.44   16.19
  10  -5  -3    0.83    1.79
 -10  -5  -4   -0.97   23.56
 -10  -5  -4   -0.94    8.70
  10   5  -4    3.29    3.01
 -10  -5  -4  -20.67   17.21
  10  -5   4    1.32    3.43
  10   5  -4    8.03   18.68
  10  -5  -4    4.52    3.86
 -10  -5   4  -13.76   20.26
 -10  -5   4    3.68    6.90
  10  -5  -4    1.98    2.81
 -10  -5  -5   -1.05    7.31
  10  -5   5    0.72    3.62
  10   5  -5   -1.24    2.24
 -10  -5  -5  -26.91   24.81
  10   5  -5  -12.49   21.14
 -10  -5  -5  -12.49   26.22
  10  -5  -5    1.09    2.88
 -10   5  -5    1.43   11.28
 -10  -5   5  -17.62   25.75
 -10  -5   5   11.68    7.23
 -10   5  -5   14.67   19.97
 -10  -5  -6   12.56   13.53
 -10  -5  -6   27.42   34.92
  10   5  -6  -15.89   22.87
  10   5  -6    2.61    3.19
 -10  -5   6    4.04    7.05
  10  -5  -6   -2.60    2.48
 -10  -5   6   38.81   33.22
  10  -5  -6   -4.03   15.35
 -11  -5   0   43.30   15.58
  11   5   0   21.56    7.01
  11   5  -1   82.40   13.17
 -11  -5  -1   79.09   24.11
  11  -5   1   67.09    9.24
  11   5   1   63.90   13.23
 -11  -5   1   91.06   23.39
  11  -5   2   43.72    6.76
 -11  -5  -2   34.31   13.97
  11   5  -2   43.60    7.47
  11  -5  -2   28.31    4.58
 -11  -5   2   39.44   14.32
  11  -5   3   92.62   11.60
  11   5  -3   79.86   11.63
 -11  -5  -3   83.43   24.64
 -11  -5  -3   61.35   22.00
 -11  -5  -3   61.47   18.20
  11  -5  -3   75.35   10.59
 -11  -5   3   74.53   21.41
  11   5  -4   30.81    6.13
  11  -5   4   26.92    7.05
 -11  -5  -4  -10.90   17.04
 -11  -5  -4   12.09   11.42
 -11  -5  -4  -19.55   34.90
 -11  -5   4   30.86   26.09
  11  -5  -4   26.66    9.93
 -11  -5   4   11.36   10.59
   0   6   0 9999.00 1216.32
   0   6  -1  486.52   60.94
   0  -6   1  505.50   62.79
   0   6  -1  488.46   62.72
   0  -6   1  500.90   60.81
   0   6  -2  191.70   25.05
   0  -6  -2  201.51   38.56
   0   6  -2  242.54   29.21
   0  -6   2  185.74   27.54
   0  -6   2  195.73   25.03
   0  -6  -2  200.21   25.62
   0  -6  -2  223.66   29.44
   0   6   3  722.87   90.67
   0  -6   3  745.42   90.34
   0   6  -3  762.79   90.30
   0   6   3  559.53   99.40
   0  -6   3  710.29   95.75
   0   6  -3  746.16   93.48
   0  -6  -3  919.50  102.58
   0  -6  -3  731.64   90.85
   0   6  -4 1411.62  168.89
   0  -6   4 1427.36  164.71
   0  -6   4 1270.72  169.59
   0  -6  -4 1318.21  165.11
   0  -6  -4 1321.72  165.20
   0   6   4 1200.70  177.23
   0  -6  -4 1450.33  175.62
   0   6   4 1334.63  164.89
   0   6  -5  333.45   39.96
   0   6  -5  375.02   48.74
   0  -6   5  305.22   47.00
   0   6   5  482.23   83.07
   0  -6   5  303.95   40.10
   0  -6  -5  309.05   40.79
   0   6   5  317.74   40.38
   0  -6  -5  303.73   40.65
   0  -6  -6  551.08   74.21
   0   6  -6  530.30   63.31
   0  -6   6  430.70   51.56
   0   6   6  389.24   51.51
   0  -6  -6  386.97   51.77
   0   6   6  398.18   77.86
   0   6  -6  400.53   51.01
   0  -6   6  343.41   59.55
   0  -6  -7  105.65   15.43
   0   6   7   90.57   39.24
   0   6   7  103.58   15.19
   0   6  -7  124.33   25.87
   0  -6   7  101.69   15.03
   0   6  -7  107.08   14.69
   0  -6  -7  123.05   40.30
   0  -6   7  105.31   27.87
   0   6  -8  406.90   51.47
   0   6   8  542.39  102.46
   0  -6   8  404.64   52.14
   0  -6  -8  442.76   74.68
   0   6   8  390.99   52.09
   0  -6   8  384.80   75.41
   0  -6  -8  406.98   52.32
   0   6  -8  443.52   67.91
   0   6  -9   62.74   24.68
   0  -6   9   97.51   36.40
   0   6   9   99.30   15.04
   0  -6  -9  104.04   15.22
   0   6  -9  101.80   14.57
   0  -6  -9   63.87   33.33
   0   6   9   74.73   46.88
   0   6 -10  130.80   19.15
   0  -6 -10  141.04   19.91
   0  -6  10   64.36   36.51
   0  -6 -10  136.48   37.61
   0   6  10  230.73   91.33
   0   6 -10  120.91   36.14
   0   6  10  144.17   19.92
   0  -6 -11   -9.33   39.87
   0  -6  11   54.75   45.34
   0   6  11   81.61   83.65
   0   6 -11   27.24    7.97
   0   6 -11   -7.21   29.61
   0  -6 -11   35.48    9.63
   1   6   0    2.32    1.96
  -1  -6   0    0.36    3.27
   1  -6   0    1.99    1.93
  -1   6   0    2.37    1.70
   1   6   0   -2.82    2.82
   1  -6   0    0.77    2.89
  -1  -6   0    1.52    1.58
  -1   6   0    3.07    2.88
   1  -6   1    1.80    2.39
  -1  -6  -1    0.21    1.77
  -1  -6  -1   -1.48    3.32
  -1   6   1   -0.08    2.80
   1   6  -1   -1.32    3.77
   1  -6   1    0.12    1.34
  -1  -6  -1   -0.96    1.85
   1   6  -1    0.62    1.33
  -1  -6   1   -1.10    0.88
   1   6   1    2.46    1.96
  -1   6  -1   -1.15    1.25
  -1  -6   1   -0.96    2.44
  -1   6  -1   -1.29    2.24
   1   6   1   -1.43    5.12
   1  -6  -1   -1.98    2.66
  -1  -6  -2    1.50    2.21
  -1  -6  -2    4.65    3.76
   1  -6   2   -1.21    0.80
  -1  -6  -2    4.42    4.83
  -1  -6  -2  -30.45   11.00
   1   6  -2   -0.03    1.21
   1   6  -2    0.65    6.09
   1  -6   2   -1.26    2.76
  -1  -6   2    1.32    2.73
   1  -6  -2   -4.51    3.24
  -1   6  -2   -1.19    1.04
   1   6   2    0.52    1.72
  -1   6  -2    0.40    2.78
   1  -6  -2    2.05    9.30
  -1  -6   2    2.37    1.49
   1  -6   3    2.95    1.90
   1   6  -3    4.23    3.75
  -1  -6  -3   -2.51    2.03
  -1   6   3   -0.12   10.56
   1   6  -3    1.89    1.68
   1  -6   3   -1.52    4.64
  -1  -6  -3    1.30    2.25
  -1  -6  -3    4.78   12.08
  -1   6  -3   -1.24    4.44
   1   6   3    0.51    2.44
   1  -6  -3   -1.07    9.41
  -1   6  -3    3.04    1.75
  -1  -6   3    0.36    1.49
   1   6   3    0.02   11.36
  -1  -6   3    7.63    5.45
   1  -6   4    1.81    1.98
   1   6  -4    3.89    2.24
  -1   6   4    8.84   19.76
   1  -6   4   -5.23    6.42
   1   6  -4   -5.40    6.96
  -1  -6  -4    6.69    3.51
  -1  -6  -4   -0.23    2.75
  -1  -6  -4   -5.09   11.47
  -1   6  -4    3.75    2.14
   1  -6  -4   12.03   10.99
   1  -6  -4    5.00    3.14
  -1  -6   4    1.53    2.07
  -1  -6   4    0.81    9.56
   1   6   4    3.02   14.06
  -1   6  -4    8.17    5.71
   1   6   4    3.92    3.13
   1   6  -5    3.16    2.55
   1   6  -5    6.14    7.60
   1  -6   5   10.47   10.25
  -1   6   5    6.47   15.93
  -1  -6  -5    3.28   13.28
  -1  -6  -5    3.23    3.48
   1  -6   5    8.70    3.42
  -1  -6  -5   -0.04    3.67
  -1   6  -5  -10.20    6.25
   1  -6  -5  -13.25   11.46
   1   6   5    5.41   28.63
  -1   6  -5   10.87    2.89
  -1  -6   5    5.97    3.34
  -1  -6   5   10.61    9.01
   1   6   5    8.44    3.91
   1  -6  -5    2.77    3.38
   1  -6   6   -6.75   11.33
   1   6  -6    6.27    9.36
   1  -6   6    2.34    2.56
   1   6  -6    6.22    2.99
  -1   6   6  -50.28   18.03
  -1  -6  -6   41.50   29.47
  -1  -6  -6   -1.34    2.35
   1   6   6    0.55    2.90
   1   6   6    7.95   23.40
  -1  -6   6   -3.06    9.87
   1  -6  -6    1.41    3.14
   1  -6  -6   12.53   13.41
  -1   6  -6    4.85    2.64
  -1  -6   6    1.53    2.50
  -1   6  -6  -21.36   15.53
   1   6  -7   -0.64   14.96
  -1  -6  -7  -15.60   36.00
   1   6  -7    7.23    3.48
  -1   6   7   23.35   34.67
  -1  -6  -7    1.04    3.03
   1  -6   7  -22.76   12.57
   1  -6   7    6.17    4.02
   1   6   7   -4.15    2.83
  -1  -6   7   -2.59    2.61
  -1  -6   7    1.66   13.51
  -1   6  -7   12.62   16.44
   1   6   7   -7.04   24.52
  -1   6  -7    2.28    2.80
   1  -6  -7    5.85    4.06
   1  -6  -7   32.61   22.34
  -1  -6  -8    2.97    4.06
   1  -6   8    5.86    4.15
   1   6  -8    0.99   13.67
  -1  -6  -8  -15.80   24.15
   1   6  -8    5.22    3.62
   1  -6   8   -0.40   19.23
  -1   6   8  -21.67   40.17
  -1   6  -8    4.53    3.28
   1  -6  -8    3.18    3.98
  -1  -6   8    2.53    3.60
   1   6   8   -8.34   61.55
  -1  -6   8    6.38   17.03
  -1   6  -8   13.38   18.69
   1   6   8    2.38    4.77
   1  -6  -8   -9.04   25.21
  -1  -6  -9  -25.79   23.29
   1   6  -9   -0.86    2.97
  -1   6   9   40.98   84.31
  -1  -6  -9    3.57    4.49
   1  -6   9   -4.16   59.70
   1   6  -9  -10.36   17.08
  -1   6  -9   -1.37   16.51
   1   6   9    1.40   42.07
  -1  -6   9    2.74   21.92
  -1   6  -9    7.36    4.28
   1  -6  -9    4.00   22.91
   1  -6  -9    1.60    3.64
   1   6   9    4.59    5.12
  -1   6  10    5.19   53.70
   1  -6  10   -1.96    5.37
   1   6 -10   -2.04    2.73
  -1  -6 -10  -55.59   57.53
   1   6 -10    4.48   19.83
   1  -6  10   -3.44   43.58
  -1  -6 -10    6.06    4.69
   1  -6 -10   -3.64    2.48
   1   6  10   25.84   56.93
  -1   6 -10    0.40    2.85
   1   6  10    1.43    5.46
   1  -6 -10   -3.23   28.76
  -1   6 -10  -11.01   21.69
  -1  -6  10   13.51   30.59
  -1   6  11   71.44   68.76
  -1  -6 -11   -2.27    3.59
   1  -6  11  -46.25   53.24
  -1  -6 -11   51.57   49.24
   1   6 -11   88.44   62.40
   1   6 -11   -2.10    3.49
  -1   6 -11  -34.41   26.55
   1  -6 -11   18.21   32.12
   1  -6 -11    6.55    5.38
   1   6  11    2.84    6.52
  -1   6 -11    3.61    4.09
  -1  -6  11   11.66   43.76
   1   6  11   22.09   69.34
   2   6   0  134.23   19.49
  -2  -6   0  146.37   21.93
  -2  -6   0  145.30   20.52
   2   6   0  148.81   22.01
  -2   6   0  153.85   21.12
  -2  -6   0  175.46   19.37
   2  -6   1  180.70   25.69
  -2  -6  -1  182.57   24.73
  -2  -6  -1  185.57   27.63
   2   6  -1  233.33   28.66
   2  -6   1  196.43   24.27
  -2  -6  -1  178.41   25.69
   2   6  -1  177.83   24.25
   2  -6  -1  176.73   26.21
  -2  -6   1  204.77   26.86
   2   6   1  173.34   27.10
   2   6   1  199.17   25.70
  -2   6  -1  227.74   26.17
  -2  -6   1  213.30   24.22
   2  -6   2 1630.47  198.70
   2   6  -2 1598.41  198.53
  -2  -6  -2 1623.19  197.84
  -2  -6  -2 1418.10  197.21
   2  -6  -2 1702.10  199.29
  -2   6  -2 1567.08  198.00
   2  -6  -2 1815.89  204.25
   2   6   2 1597.34  197.53
  -2  -6   2 1624.78  199.06
   2   6  -3  400.34   56.56
   2  -6   3  454.97   53.66
  -2  -6  -3  380.69   55.69
  -2  -6  -3  484.79   66.87
  -2  -6  -3  434.61   54.32
  -2  -6  -3  440.26   55.63
   2  -6   3  431.32   57.83
   2   6  -3  466.58   53.75
  -2  -6   3  456.65   53.78
   2  -6  -3  399.49   61.69
   2   6   3  404.66   55.15
  -2   6  -3  446.39   56.87
  -2   6  -3  429.00   53.56
  -2  -6   3  423.90   57.62
  -2  -6  -4  835.21  103.24
  -2  -6  -4  842.23  113.32
  -2  -6  -4  847.89  101.79
   2  -6   4  855.65  101.14
   2  -6   4  744.15  106.27
   2   6  -4  793.92  104.97
  -2   6   4  729.21  112.94
   2   6  -4  817.95  101.07
   2   6   4  816.31  102.75
  -2  -6   4  847.64  101.25
  -2  -6   4  826.31  106.51
  -2   6  -4  829.86  100.91
   2  -6  -4  788.85  101.60
   2  -6  -4  902.43  110.65
  -2   6  -4  827.71  105.28
  -2  -6  -5  521.20   74.78
   2   6  -5  520.73   61.01
   2  -6   5  524.55   61.17
  -2  -6  -5  471.71   61.51
  -2   6   5  503.91   78.02
   2   6  -5  433.13   65.44
   2  -6   5  501.40   69.04
  -2  -6  -5  439.70   62.93
   2  -6  -5  548.46   71.63
  -2   6  -5  475.91   60.69
   2   6   5  408.70   79.73
  -2   6  -5  589.35   67.45
   2   6   5  516.09   62.87
   2  -6  -5  455.94   61.49
  -2  -6   5  451.33   67.46
  -2  -6   5  500.79   61.19
   2  -6   6  604.18   78.20
  -2  -6  -6  597.68   80.44
  -2  -6  -6  623.21   92.24
  -2   6   6  705.83   99.24
   2   6  -6  637.31   78.03
  -2  -6  -6  649.35   78.74
   2  -6   6  605.59   87.88
  -2   6  -6  638.96   77.79
   2  -6  -6  660.65   78.88
   2   6   6  603.17   79.74
  -2  -6   6  560.20   86.50
   2  -6  -6  645.37   89.16
   2   6   6  651.23  110.82
  -2  -6   6  618.76   78.33
  -2   6  -6  703.32   85.49
  -2  -6  -7  254.05   34.29
   2  -6   7  390.88   68.78
   2  -6   7  266.64   34.23
   2   6  -7  260.05   33.74
  -2  -6  -7  204.05   46.08
  -2   6   7  186.37   50.63
   2   6   7  274.68   35.83
   2  -6  -7  261.81   34.50
  -2  -6   7  269.99   46.91
  -2  -6   7  276.21   34.32
  -2   6  -7  251.04   33.44
   2   6   7  397.03   89.22
   2  -6  -7  299.04   51.94
   2  -6   8  381.79   68.72
   2   6  -8  348.53   54.01
   2  -6   8  391.13   45.58
   2   6  -8  333.38   43.23
  -2   6   8  198.55   60.47
  -2  -6  -8  368.70   44.14
  -2  -6  -8  487.27   82.36
   2  -6   8  353.99   48.15
  -2   6  -8  331.62   57.56
   2   6   8  316.94   45.14
   2  -6  -8  302.89   43.73
  -2  -6   8  362.40   44.08
  -2   6  -8  320.27   42.90
   2   6   8  215.43   70.36
  -2  -6   8  462.76   78.39
  -2  -6  -9   41.06   35.25
  -2  -6  -9   37.07    9.31
   2  -6   9   48.43   14.59
   2  -6   9    4.82   24.60
   2   6  -9   52.42   25.76
  -2   6   9   73.91   60.58
   2   6  -9   61.97   10.86
  -2   6  -9   48.63   22.46
  -2   6  -9   33.15    8.45
   2   6   9    5.82   49.03
   2   6   9   69.94   14.18
   2  -6  -9   81.91   34.49
  -2  -6   9   91.25   46.41
   2  -6  -9   61.86   11.89
   2   6 -10   29.26   23.92
  -2   6  10   87.10   86.03
  -2  -6 -10   70.68   14.19
   2  -6  10   61.70   40.44
   2   6 -10   76.85   13.79
  -2  -6 -10   80.18   35.51
  -2   6 -10   78.27   13.42
  -2   6 -10   60.22   28.11
  -2  -6  10    4.54   32.96
   2  -6 -10  105.48   16.42
   2  -6 -10   75.03   37.35
   2   6  10   47.38   63.11
   2   6  10   73.77   16.94
  -2   6  11  -41.42   70.13
   2   6 -11   49.24    9.64
  -2  -6 -11   38.97    9.68
  -2  -6 -11   24.53   34.99
   2   6 -11  -16.82   30.46
   2  -6 -11   15.01   33.49
   2  -6 -11   31.50    9.85
   2   6  11   44.74   14.08
  -2  -6  11   85.51   47.91
  -2   6 -11   48.02    9.55
   2   6  11  122.14   76.33
  -2   6 -11    9.56   30.71
   3   6   0    0.08    2.18
  -3  -6   0    2.10    1.46
   3  -6   0    2.32    1.73
   3   6   0    0.28    1.68
   3   6   0   -3.07    4.16
   3  -6   0    1.06    2.50
  -3   6   0   -2.45    2.61
  -3  -6   0    6.76    4.04
   3   6  -1    1.12    1.61
  -3  -6  -1   -1.98    2.44
   3   6  -1   -2.45    4.17
  -3  -6  -1    3.97    1.90
   3  -6   1    3.07    3.15
   3  -6   1    3.19    1.58
   3  -6  -1   -0.67    3.58
  -3  -6   1    1.80    1.39
  -3  -6   1    1.48    3.17
   3   6   1    2.79    2.35
  -3   6  -1   -1.96    2.73
   3   6   1   -0.85    4.34
   3  -6  -1    5.74    8.43
   3   6   1    0.51    2.60
  -3  -6  -2    6.93    3.15
  -3  -6  -2    9.47   12.64
  -3  -6  -2    5.93    4.70
   3  -6   2   16.09    5.63
  -3  -6  -2    1.45    1.89
   3  -6   2    1.86    1.43
   3   6  -2    0.83    1.49
   3   6  -2    3.37    4.29
  -3  -6   2    2.65    2.94
   3   6   2    1.82    2.40
  -3   6  -2    2.61    1.61
   3  -6  -2   -7.93    3.61
  -3   6  -2   -1.60    3.17
   3   6   2   -0.19    2.41
  -3  -6   2    0.65    1.49
   3  -6  -2   10.21    8.94
   3  -6  -2    1.49    2.54
   3   6  -3    1.82    2.11
  -3  -6  -3    5.43    5.35
  -3  -6  -3    9.35    7.60
  -3  -6  -3    3.95    4.02
   3  -6   3   -0.96    6.12
   3   6  -3   -2.05    4.48
   3  -6   3    0.68    1.81
  -3  -6  -3   -1.22    2.38
  -3   6   3   16.74   16.38
  -3  -6  -3   -5.09   14.25
  -3  -6   3    5.10    2.39
   3  -6  -3  -10.38    8.08
  -3   6  -3    9.74    5.12
  -3  -6   3    4.36    5.21
   3   6   3    4.84    4.49
  -3   6  -3    1.59    1.90
   3  -6   4   -4.67    7.45
  -3   6   4   -8.51   13.99
   3   6  -4    3.05    2.12
   3   6  -4   -2.61    5.11
  -3  -6  -4  -22.55   13.63
  -3  -6  -4   -2.26    1.82
   3  -6   4    1.63    1.96
  -3  -6  -4   -2.47    3.47
  -3  -6  -4    2.12    3.96
  -3   6  -4   -3.98    5.90
  -3   6  -4    2.00    1.70
  -3  -6   4    3.05    2.11
   3  -6  -4    4.38   10.20
  -3  -6   4    6.74    7.44
   3  -6  -4    0.03    1.90
   3   6   4   -3.08    2.61
  -3  -6  -5    1.40    2.66
  -3  -6  -5  -16.17   14.99
   3  -6   5   -1.60    1.75
   3   6  -5   -2.37    6.42
  -3  -6  -5    4.05    4.50
   3   6  -5    4.80    2.62
   3  -6   5    9.61   11.30
   3  -6  -5    1.13    2.42
  -3  -6   5   11.14   10.06
  -3   6  -5   -5.83    7.35
   3   6   5   -8.63   20.43
   3  -6  -5   -6.84   11.03
  -3   6  -5    3.20    1.95
   3   6   5    1.09    3.25
  -3  -6   5    1.66    2.47
  -3  -6  -6    4.69    3.46
   3  -6   6   -1.34   14.39
  -3  -6  -6    2.06    4.75
   3  -6   6   11.91    7.80
  -3   6   6   51.69   24.52
   3   6  -6   -4.03    9.00
  -3  -6  -6    8.26   18.69
   3   6  -6    3.97    2.83
   3  -6   6    6.09    3.10
  -3   6  -6   13.98    8.98
   3  -6  -6    0.52    2.47
   3   6   6    2.61    4.32
  -3   6  -6    2.24    2.36
   3  -6  -6   -2.56   11.96
  -3  -6   6   18.56   12.66
  -3  -6   6    7.11    3.46
   3   6   6  -24.62   30.07
  -3   6   7   -6.82   24.84
   3  -6   7    1.72    3.72
  -3  -6  -7    6.51    3.99
   3  -6   7   14.52   16.24
   3  -6   7    6.30    5.58
   3   6  -7   -2.82    8.90
  -3  -6  -7   -2.18   19.02
   3   6  -7    5.96    3.53
  -3  -6   7    5.19    3.98
  -3  -6   7  -13.32   15.48
  -3   6  -7  -11.98   11.77
   3  -6  -7    4.92    4.14
  -3   6  -7    5.76    3.44
   3   6   7  -30.89   58.28
   3   6   7   -0.84    5.47
   3  -6  -7   42.14   19.55
   3  -6   8   -3.15    6.00
  -3  -6  -8    2.25    3.17
   3  -6   8  -13.65   30.38
  -3  -6  -8   -7.13   23.60
   3   6  -8    2.73    3.43
   3   6  -8    9.31   12.41
  -3   6   8  -16.54   28.88
   3   6   8   -0.15    4.87
  -3  -6   8   14.94   17.82
  -3  -6   8   -0.61    3.35
   3   6   8   20.40   36.46
  -3   6  -8  -15.99   15.00
   3  -6  -8  -13.83   13.48
   3  -6  -8    0.51    3.13
  -3   6  -8    1.26    2.66
   3   6  -9    6.16    4.24
  -3  -6  -9    8.04    5.22
  -3  -6  -9  -61.18   24.75
   3  -6   9    6.81   31.94
   3   6  -9   25.80   18.09
  -3   6   9   82.06   51.93
   3   6   9   86.43   87.12
  -3   6  -9    3.77    3.29
   3   6   9    5.86    7.91
   3  -6  -9   16.51   22.77
  -3   6  -9   -2.73   17.15
  -3  -6   9  -15.20   22.42
   3  -6  -9   -1.63    3.83
  -3  -6 -10   -2.56    2.72
   3   6 -10   -1.40    3.12
  -3   6  10  -53.73   55.06
  -3  -6 -10    9.70   26.80
   3   6 -10   26.29   20.19
   3  -6 -10  -55.96   24.62
  -3   6 -10  -13.71   21.54
   3   6  10   31.59   62.74
   3  -6 -10   -1.10    3.64
  -3   6 -10    0.93    3.48
  -3  -6  10   10.76   30.22
   3   6  10    2.34    7.19
   3   6 -11   68.08   33.26
   3  -6  11    6.22   55.34
   3   6 -11    3.04    4.57
  -3   6  11   35.78   69.21
  -3  -6 -11   28.51   45.01
  -3  -6 -11   10.36    5.65
  -3  -6  11  -43.87   45.82
   3  -6 -11   -1.53   28.08
  -3   6 -11    4.26    4.23
   3  -6 -11    0.66    4.06
  -3   6 -11    3.92   31.36
   4  -6   0 1356.46  162.67
   4  -6   0 1380.62  160.87
  -4  -6   0 1356.24  162.99
  -4  -6   0 1306.32  163.11
  -4   6   0 1278.54  161.20
   4   6   0 1348.08  162.53
   4   6   0 1201.39  163.15
   4   6   0 1273.98  160.57
   4   6  -1  687.20   84.92
  -4  -6  -1  721.37   87.89
   4  -6   1  684.23   84.70
  -4  -6  -1  708.04   84.75
   4   6  -1  691.49   88.12
   4  -6   1  675.87   87.68
  -4  -6  -1  718.30   88.88
  -4  -6  -1  658.45   84.99
   4  -6   1  723.73   86.46
  -4  -6   1  660.57   87.24
  -4   6  -1  685.17   86.02
   4   6   1  642.15   87.08
  -4  -6   1  711.16   84.63
   4  -6  -1  652.63   86.53
   4  -6  -1  691.11   88.82
  -4  -6   1  783.17   88.12
   4   6   1  675.89   88.46
   4  -6  -1  712.55   86.13
   4  -6   2  811.55   97.83
  -4  -6  -2  781.51   97.89
  -4  -6  -2  754.49   94.92
   4   6  -2  712.36   97.49
  -4  -6  -2  772.63   95.07
   4  -6   2  803.30   94.44
   4   6  -2  776.92   94.68
  -4  -6  -2  632.25  105.67
   4  -6   2  761.18   98.04
  -4  -6  -2  872.84  100.75
  -4  -6   2  801.52   98.28
   4  -6  -2  764.36   95.70
  -4   6  -2  748.01   96.32
   4  -6  -2  821.57   99.39
  -4  -6   2  785.41   94.56
   4   6   2  726.59   97.19
   4  -6  -2  776.35   96.95
  -4  -6   2  767.62   96.98
   4   6  -3  202.12   28.78
  -4  -6  -3  152.17   38.41
  -4  -6  -3  196.99   25.27
   4   6  -3  200.06   24.96
   4  -6   3  186.37   28.29
   4  -6   3  205.27   30.36
   4  -6   3  218.16   24.83
  -4  -6  -3  197.51   28.33
  -4  -6  -3  184.63   26.01
  -4   6   3  217.23   41.44
  -4  -6   3  201.29   24.96
   4   6   3  186.06   27.44
   4  -6  -3  223.65   32.07
  -4   6  -3  244.13   28.62
  -4  -6   3  200.58   27.11
  -4  -6   3  197.68   29.71
  -4   6  -3  166.83   24.52
  -4   6   4  372.14   67.39
   4   6  -4  317.02   50.49
  -4  -6  -4  361.23   64.78
  -4  -6  -4  403.39   50.88
  -4  -6  -4  361.78   49.18
   4   6  -4  381.15   47.08
   4  -6   4  359.78   53.74
   4  -6   4  363.32   46.95
  -4  -6  -4  398.43   47.50
   4  -6   4  392.99   51.29
   4  -6  -4  348.86   47.37
  -4  -6   4  399.20   49.33
   4  -6  -4  453.18   55.20
   4   6   4  322.62   49.35
  -4  -6   4  418.76   47.28
  -4   6  -4  370.82   46.72
  -4   6  -4  421.97   51.65
   4  -6   5  198.82   27.56
   4   6  -5  199.52   23.17
   4  -6   5  182.53   23.11
   4  -6   5  182.07   36.35
  -4  -6  -5  186.68   44.07
  -4   6   5  216.06   46.06
  -4  -6  -5  147.56   25.33
  -4  -6  -5  177.41   23.34
  -4  -6  -5  204.42   27.53
   4   6   5  156.18   25.38
  -4  -6   5  166.02   23.10
  -4   6  -5  198.71   30.59
   4  -6  -5  164.75   23.44
  -4  -6   5  208.00   36.73
  -4   6  -5  172.46   22.58
   4  -6  -5  171.91   32.46
   4   6   5  143.60   41.90
  -4  -6  -6  288.82   49.73
   4  -6   6  363.74   47.54
  -4   6   6  422.28   75.50
   4  -6   6  356.26   51.77
  -4  -6  -6  387.10   47.76
   4   6  -6  389.05   54.07
   4   6  -6  406.11   47.53
  -4  -6  -6  452.57   70.03
  -4  -6  -6  398.34   51.82
  -4   6  -6  375.05   46.91
   4   6   6  357.23   50.21
   4   6   6  248.20   66.90
   4  -6  -6  427.05   58.97
   4  -6  -6  359.20   47.94
  -4   6  -6  371.29   54.16
  -4  -6   6  381.34   58.06
  -4  -6   6  417.28   47.84
   4   6  -7   76.53   24.02
  -4  -6  -7   66.14   26.77
   4  -6   7  106.49   21.28
   4  -6   7   88.93   12.09
  -4  -6  -7   81.87   12.11
   4   6  -7   66.95   11.38
  -4  -6  -7  106.56   21.78
   4  -6   7   60.19   25.14
  -4  -6   7   79.35   13.60
  -4   6  -7   34.77   18.80
   4   6   7   37.55   34.76
   4  -6  -7   98.66   15.12
   4   6   7   93.24   18.17
  -4  -6   7   91.39   27.60
  -4   6  -7   78.12   11.16
   4  -6  -7   91.39   28.47
   4   6  -8  121.55   28.20
  -4   6   8   55.51   40.80
  -4  -6  -8   99.39   15.13
  -4  -6  -8   50.93   35.74
   4  -6   8   43.55   29.65
   4   6  -8  111.67   15.13
  -4  -6   8  120.39   15.85
  -4   6  -8  103.12   14.56
   4   6   8  150.57   24.57
  -4   6  -8   80.42   25.39
  -4  -6   8  104.15   32.89
   4  -6  -8   67.78   28.32
   4  -6  -8  105.76   15.71
   4   6   8  139.78   87.08
  -4  -6  -9  121.50   45.86
   4  -6   9   18.98   40.60
  -4  -6  -9   93.11   13.84
   4   6  -9   83.83   26.27
  -4   6   9   62.34   46.61
   4   6  -9   95.25   15.80
   4   6   9  109.17   22.58
  -4  -6   9   41.57   38.10
  -4   6  -9   65.18   28.54
   4  -6  -9  162.86   41.31
   4  -6  -9   77.10   15.71
  -4   6  -9   91.44   13.15
   4   6   9   21.45   65.15
  -4   6  10  -32.86   50.06
   4  -6  10   88.71   52.29
   4   6 -10  106.08   14.98
  -4  -6 -10  119.01   44.18
  -4  -6 -10  108.98   17.11
   4   6 -10   50.21   28.54
  -4   6 -10   45.97   31.68
  -4   6 -10   93.20   14.01
   4  -6 -10  126.42   18.95
   4  -6 -10   41.46   31.78
  -5  -6   0    3.39    4.09
  -5  -6   0    0.92    1.21
   5   6   0   -2.63    1.43
   5   6   0    0.26    2.53
   5   6   0    6.69    6.41
  -5  -6   0    1.46    1.03
  -5  -6   0    2.14    4.48
   5  -6   0    0.91    3.72
  -5  -6  -1   -4.78    5.40
   5  -6   1    1.58    4.27
   5   6  -1    7.85    6.26
   5  -6   1    3.45    4.66
   5   6  -1    4.48    4.26
  -5  -6  -1    6.90    5.03
  -5  -6  -1    4.87    1.96
   5   6  -1    2.08    2.00
   5  -6   1    5.04    1.61
  -5  -6  -1    3.19    1.42
  -5   6  -1   -1.62    3.30
   5  -6  -1    0.96    3.49
  -5  -6   1    0.70    4.80
   5   6   1    4.35    2.92
  -5  -6   1   -1.33    3.23
  -5  -6   1    2.11    1.31
   5   6   1   -0.25    3.42
   5  -6   2    3.80    1.56
  -5  -6  -2   -6.04    7.44
   5  -6   2    8.03    6.67
   5   6  -2    5.92    6.19
  -5  -6  -2    5.00    1.98
   5  -6   2    2.43    4.31
  -5  -6  -2    5.20    2.04
  -5  -6  -2    6.71    5.36
   5   6  -2    4.08    2.03
  -5  -6  -2   25.25   20.31
  -5  -6   2    2.49    3.76
   5   6   2    2.42    3.50
  -5  -6   2    1.00    4.84
  -5   6  -2    2.41    3.93
   5   6   2    7.88    3.36
   5  -6  -2    7.06    6.29
   5  -6  -2   -5.59    4.63
   5  -6  -2    1.97    3.00
  -5  -6   2    4.78    1.81
   5   6  -3    4.44    2.20
  -5  -6  -3    3.84    5.75
  -5  -6  -3  -24.51   17.13
   5  -6   3    1.48    1.56
   5  -6   3  -19.25    7.25
   5   6  -3   -7.17    5.10
  -5  -6  -3    2.29    2.36
   5  -6   3   -1.95    3.89
  -5  -6  -3    1.83    1.92
  -5  -6  -3    0.18   11.23
   5  -6  -3    7.12    3.18
  -5  -6   3    1.01    2.73
  -5  -6   3    1.59    1.57
  -5  -6   3    5.43    7.04
   5  -6  -3    2.43    7.26
  -5   6  -3   -7.91    4.89
   5   6   3    2.84    4.17
   5   6  -4    5.10    2.38
  -5  -6  -4    8.85   18.31
  -5  -6  -4   11.17    3.93
   5  -6   4    1.89    4.46
  -5  -6  -4   13.25   12.42
   5  -6   4   -7.42    9.59
   5  -6   4    3.42    2.18
  -5   6   4  -15.53   17.69
  -5  -6  -4   -1.38    4.11
   5   6  -4    3.42    7.81
  -5  -6  -4    2.77    2.17
  -5  -6   4   -0.20    1.50
   5  -6  -4   16.21    9.63
   5   6   4    3.27    4.21
  -5   6  -4   -8.41    6.06
  -5  -6   4    2.27    8.84
   5  -6  -4    1.95    2.40
  -5   6  -4    6.18    1.92
  -5  -6   4   -0.57    3.07
   5  -6   5    0.15   14.55
   5  -6   5    1.81    5.84
  -5  -6  -5    1.98    2.76
   5   6  -5  -10.27    7.68
  -5   6   5    8.78   22.36
   5  -6   5   -0.46    2.25
   5   6  -5    1.38    2.39
  -5  -6  -5   16.13    5.61
  -5  -6  -5  -19.93   18.70
  -5  -6  -5    7.79    7.53
  -5   6  -5   10.61    8.41
  -5  -6   5    0.52    2.57
   5  -6  -5    8.93   12.03
   5   6   5    6.51    5.46
  -5  -6   5  -16.93   10.18
  -5  -6   5   13.34    5.58
  -5   6  -5    3.50    2.25
   5  -6  -5    0.21    2.68
  -5  -6  -6    3.11    5.29
   5   6  -6    0.74    2.47
  -5  -6  -6   22.57   20.89
   5   6  -6   -5.25    9.02
   5  -6   6    5.43    3.24
  -5  -6  -6    1.65    2.66
  -5   6   6   25.21   24.75
   5  -6   6   -0.41    5.90
  -5  -6  -6    2.95    5.18
   5  -6   6   -3.83   16.61
  -5   6  -6    0.32    1.88
   5   6   6   -2.78    3.48
  -5  -6   6    2.01    2.52
   5  -6  -6    8.26   13.09
  -5   6  -6   13.44   11.80
   5  -6  -6   -2.10    1.99
  -5  -6   6    4.39    3.96
  -5  -6  -7   -3.98    5.63
   5  -6   7    2.97    3.72
  -5  -6  -7   -1.76    2.42
  -5  -6  -7    8.04    7.57
  -5  -6  -7   -9.67   21.59
   5   6  -7    1.50    2.78
   5  -6   7   15.38   25.30
   5   6  -7   -2.13   12.93
  -5   6   7   21.52   28.56
  -5  -6   7   -2.72   19.73
  -5   6  -7    4.60    2.64
  -5  -6   7    3.72    4.69
   5  -6  -7  -43.38   16.05
  -5  -6   7    0.62    2.94
   5  -6  -7    0.88    3.13
   5   6   7   16.50   41.00
   5   6   7    5.58    5.96
  -5   6  -7    5.71   13.60
  -5  -6  -8    3.30    3.57
  -5  -6  -8   40.89   30.76
   5   6  -8    4.58    3.45
  -5   6   8    7.64   34.70
   5  -6   8   22.80   37.87
  -5  -6  -8   -6.46    5.95
   5   6  -8    8.25   13.20
  -5   6  -8    0.25    2.47
  -5  -6   8    4.18    4.15
   5   6   8    5.74   47.51
  -5   6  -8   10.23   17.93
  -5  -6   8    2.86    4.85
  -5  -6   8   23.01   20.30
   5  -6  -8   -4.23    2.82
   5  -6  -8    8.58   16.79
   5   6  -9    5.68    4.32
  -5  -6  -9    6.99    4.24
   5  -6   9   24.42   41.62
  -5  -6  -9   14.60   30.99
   5   6  -9   -5.54   15.36
  -5  -6   9  -26.25   24.71
  -5   6  -9  -29.34   20.82
   5  -6  -9    0.70   21.88
  -5   6  -9   12.13    4.49
  -5  -6   9    4.31    5.14
   5  -6  -9    5.83    5.05
  -5  -6   9   -0.37    4.10
  -5   6  10  -16.40   51.64
  -5  -6 -10  -25.33   36.93
   5   6 -10   13.77   22.21
   5   6 -10    6.38    4.56
  -5  -6 -10   -0.32    3.07
   5  -6  10   14.67   53.09
   5  -6 -10   -4.81    3.47
   5  -6 -10   39.29   30.22
   5   6  10  -63.35   74.74
  -5   6 -10    4.52    3.55
  -5  -6  10   -1.76    4.13
  -5   6 -10   21.14   27.28
  -5  -6  10   61.56   43.24
   6  -6   0  396.47   50.30
   6   6   0  309.40   50.12
   6   6   0  395.71   50.27
   6   6   0  375.31   47.36
  -6  -6   0  405.36   50.35
  -6  -6   0  393.06   51.12
   6  -6   1  320.83   38.66
  -6  -6  -1  307.03   43.21
   6   6  -1  325.12   42.26
   6   6  -1  315.72   39.22
   6  -6   1  328.47   42.98
  -6  -6  -1  301.40   43.23
   6   6  -1  287.83   43.01
   6   6   1  317.47   42.45
   6  -6  -1  309.70   41.68
  -6  -6   1  301.78   42.30
  -6  -6   1  323.45   42.98
  -6  -6  -2  572.15   71.33
  -6  -6  -2  503.90   85.46
   6   6  -2  589.15   71.99
  -6  -6  -2  612.46   77.08
  -6  -6  -2  638.92   78.09
  -6  -6  -2  597.20   71.28
   6  -6   2  612.76   76.29
   6  -6   2  579.34   71.53
   6   6  -2  561.24   76.05
   6  -6   2  582.56   76.22
  -6  -6   2  597.27   76.00
   6   6   2  561.88   75.61
   6  -6  -2  596.58   74.05
  -6  -6   2  500.91   74.93
  -6   6  -2  627.14   73.35
   6  -6   3  221.00   33.71
  -6  -6  -3  336.49   52.59
   6  -6   3  252.71   37.76
  -6  -6  -3  242.53   29.02
  -6  -6  -3  222.81   28.89
   6   6  -3  224.63   34.18
   6  -6   3  228.34   29.04
   6   6  -3  225.91   29.30
  -6  -6  -3  273.76   39.26
  -6  -6  -3  221.95   34.20
  -6  -6   3  246.80   35.39
  -6  -6   3  227.18   28.80
   6   6   3  223.61   32.82
   6  -6  -3  232.83   32.77
  -6   6  -3  231.81   32.09
  -6  -6   3  234.15   32.46
   6  -6  -3  210.21   32.08
   6  -6  -3  259.02   30.79
  -6  -6  -4  389.29   53.07
   6  -6   4  375.34   52.55
  -6  -6  -4  416.57   66.55
  -6  -6  -4  375.01   47.35
  -6   6   4  389.49   67.01
   6  -6   4  334.63   56.64
  -6  -6  -4  395.53   48.00
   6   6  -4  388.20   52.77
   6  -6   4  382.09   47.56
  -6  -6  -4  518.66   61.67
   6   6  -4  371.17   47.64
   6  -6  -4  379.14   47.97
   6  -6  -4  425.47   53.11
  -6   6  -4  383.33   51.68
  -6  -6   4  361.65   54.23
  -6  -6   4  357.87   47.31
  -6  -6   4  407.93   50.92
   6   6   4  364.95   51.52
  -6  -6  -5   99.20   14.69
  -6  -6  -5  129.88   23.73
  -6  -6  -5   46.06   26.26
   6  -6   5   96.61   21.40
  -6  -6  -5   55.87    9.57
   6   6  -5   95.91   19.60
   6  -6   5   42.68   23.18
  -6  -6  -5   36.67   25.07
   6  -6   5   81.56   10.27
   6   6  -5   69.34   10.06
  -6   6   5  -12.41   25.18
  -6  -6   5   61.38    9.70
  -6  -6   5   52.10   20.14
   6  -6  -5   86.19   12.63
   6  -6  -5   72.19   19.46
  -6   6  -5   57.92   16.25
   6   6   5   74.55   16.26
  -6  -6   5   81.00   15.54
  -6  -6  -6  188.51   24.05
  -6   6   6  226.47   51.86
  -6  -6  -6  210.79   26.99
   6  -6   6  187.04   42.92
   6   6  -6  162.65   30.77
   6   6  -6  168.41   24.16
   6  -6   6  190.22   24.58
  -6  -6   6  196.18   27.02
  -6  -6   6  201.39   36.63
  -6   6  -6  262.67   38.57
   6   6   6  151.28   30.90
  -6   6  -6  177.91   23.47
  -6  -6   6  180.85   24.17
   6  -6  -6  189.69   24.89
   6  -6  -6  190.30   36.14
   6   6  -7   67.12   20.77
  -6   6   7  114.62   46.38
  -6  -6  -7   43.79   31.64
   6  -6   7   95.96   14.59
  -6  -6  -7   92.44   24.11
  -6  -6  -7  113.04   20.64
  -6  -6  -7   98.12   13.75
   6   6  -7  103.84   14.24
  -6   6  -7   95.33   13.31
  -6   6  -7  113.45   26.51
   6  -6  -7  107.15   14.77
  -6  -6   7  100.88   14.26
  -6  -6   7  101.07   18.77
   6  -6  -7   89.72   25.90
   6   6  -8   38.87   19.68
   6  -6   8   25.13   42.01
  -6   6   8    1.90   40.09
   6   6  -8   86.87   12.42
  -6  -6  -8  107.51   21.57
  -6  -6  -8   82.19   11.99
  -6  -6  -8   75.78   39.43
  -6   6  -8   79.56   11.36
   6  -6  -8   90.04   15.17
  -6  -6   8   98.68   18.65
   6  -6  -8   34.19   21.75
  -6   6  -8   83.88   25.91
  -6  -6   8   85.68   12.61
   6   6  -9   56.00   20.30
  -6  -6  -9   37.77    7.32
  -6  -6  -9    5.09    9.87
   6  -6   9  -32.19   49.94
  -6   6   9    7.67   48.91
  -6  -6  -9  -27.53   35.91
   6   6  -9   35.19    8.12
   6  -6  -9   18.25    7.59
  -6  -6   9   19.90   34.86
  -6  -6   9   37.22   10.80
   6  -6  -9   48.47   25.19
   6   6   9  -26.19   61.73
  -6   6  -9   18.07   23.57
  -6  -6   9   35.92    8.72
  -6   6  -9   32.03    6.33
  -7  -6   0    2.23    6.44
   7   6   0  -10.68    7.55
   7   6   0    6.46    2.95
   7  -6   0   -1.59    3.33
   7   6   0   -2.56    2.70
  -7  -6   0    1.93    4.20
   7   6  -1    1.18    2.29
  -7  -6  -1   -6.68    6.90
  -7  -6  -1   16.73   22.83
   7   6  -1    1.69    4.02
   7  -6   1    1.95    1.03
   7   6  -1    1.82    8.69
   7  -6   1    0.23    5.06
  -7  -6  -1    3.79    6.00
  -7  -6   1    6.29    5.57
  -7  -6   1    9.55    6.55
   7  -6  -1   -0.45    2.80
   7   6   1    8.95    3.41
   7   6   1    4.00    5.07
   7  -6   2    4.54    1.62
   7  -6   2   -2.59    3.51
  -7  -6  -2   13.67    9.55
   7   6  -2   -6.22    8.93
  -7  -6  -2  -16.18   20.82
   7   6  -2    3.53    2.28
  -7  -6  -2    1.38    5.37
   7  -6  -2   -3.36    2.99
  -7  -6   2    4.31    5.82
  -7  -6   2   -5.38    7.36
   7   6   2    1.80    4.63
   7   6   2   10.53    3.56
   7  -6   3    2.38    1.97
  -7  -6  -3   -2.81   11.54
  -7  -6  -3   -3.87   21.84
   7   6  -3   -8.47    9.70
   7  -6   3    8.00    7.06
   7  -6   3    1.32   18.27
   7   6  -3   -0.40    1.97
  -7  -6  -3    4.65    6.93
   7  -6  -3    7.35    3.71
  -7  -6   3   11.74    9.71
  -7   6  -3   -2.35    5.79
  -7  -6   3   -0.28    4.89
   7   6   3   -0.60    4.42
   7  -6  -3   15.90    7.10
  -7  -6  -4    0.19    1.25
  -7  -6  -4  -23.56   15.44
   7   6  -4  -10.30    9.75
   7  -6   4  -14.53   19.53
   7   6  -4    1.26    2.07
  -7  -6  -4    9.64    7.63
  -7  -6  -4    1.19    1.13
   7  -6   4   -3.00    3.70
   7  -6   4   -0.42    1.68
  -7  -6  -4  -22.87   19.23
  -7  -6   4   -0.23    4.03
   7   6   4   -1.88    3.66
  -7   6  -4    9.84    7.77
   7  -6  -4    0.74    2.05
  -7  -6   4  -14.05   10.05
   7  -6  -4   -2.54    8.45
   7  -6  -4    0.99    2.74
  -7  -6  -5    8.67    2.79
  -7  -6  -5   46.79   22.22
  -7  -6  -5    8.41   22.14
  -7  -6  -5    1.69    6.82
  -7  -6  -5    3.15    2.01
   7   6  -5   18.29   11.77
  -7   6   5  -15.31   26.79
   7  -6   5    0.05    2.51
   7   6  -5   -2.55    1.73
  -7   6  -5    6.48    9.81
   7  -6  -5    5.56   10.66
  -7  -6   5    7.53   13.41
   7  -6  -5    1.09    2.89
  -7  -6   5    1.92    4.76
   7  -6   6   -0.95    2.82
   7   6  -6    0.08    2.81
  -7  -6  -6    2.81    5.58
  -7  -6  -6   20.18   24.48
  -7  -6  -6   18.10    4.65
  -7  -6  -6    6.53    2.70
  -7   6   6   31.05   35.10
   7   6  -6   27.25   15.39
  -7  -6  -6    9.03   24.99
  -7  -6   6   -3.48   15.88
   7  -6  -6    4.17    3.52
  -7  -6   6    2.02    5.23
   7  -6  -6    4.75   13.99
  -7   6  -6   -7.20   11.14
  -7  -6  -7   10.01    5.36
  -7   6   7   -1.57   39.56
   7   6  -7    1.75   13.93
  -7  -6  -7   24.01   26.78
  -7  -6  -7    1.40    6.67
  -7  -6  -7   -2.02   25.52
  -7  -6  -7   -2.23    2.26
   7  -6   7  -38.58   36.36
   7   6  -7    5.98    3.86
  -7   6  -7    8.70    2.19
  -7   6  -7    8.38    2.38
  -7  -6   7   12.06    4.92
   7  -6  -7  -10.63   15.76
  -7   6  -7   32.77   16.82
   7  -6  -7    9.44    4.22
  -7  -6   7  -10.42   19.65
  -7  -6  -8    0.41    5.38
   7   6  -8   -2.53    2.02
  -7   6   8   -2.54   47.81
  -7  -6  -8   -1.31    2.30
   7  -6   8   15.62   47.48
   7   6  -8  -23.32   17.61
  -7  -6  -8   -0.88   30.99
   7  -6  -8    3.24    3.78
  -7   6  -8   -2.05    1.94
   7  -6  -8    6.06   19.03
  -7   6  -8   15.67   18.62
  -7  -6   8    4.37   26.01
  -7  -6   8   -4.82    2.46
  -7   6  -8   -0.24    2.91
  -7  -6  -9    9.01    6.95
  -7   6   9  110.70   63.85
  -7  -6  -9    8.48    3.48
  -7  -6  -9    5.39   41.03
   7   6  -9    0.36    3.46
   7   6  -9    0.24   21.28
   7  -6   9  -92.26   69.16
   7  -6  -9   -1.93    3.43
  -7   6  -9    8.95   24.02
  -7  -6   9   -3.62    3.41
   7  -6  -9   19.18   23.15
  -7  -6   9  -33.91   32.91
  -7   6  -9    8.00    3.51
  -8  -6   0  346.66   49.44
  -8  -6   0  376.46   47.37
   8   6   0  332.40   47.83
   8   6   0  338.46   44.47
   8  -6   0  367.46   48.09
  -8  -6  -1  200.72   32.48
   8   6  -1  219.01   28.76
   8   6  -1  202.22   34.84
   8   6  -1  226.30   32.40
  -8  -6  -1  152.88   43.64
   8  -6   1  211.01   33.00
  -8  -6  -1  262.22   35.04
   8  -6   1  227.51   27.65
  -8  -6   1  256.02   33.37
   8  -6  -1  223.46   31.96
   8   6   1  244.84   33.14
  -8  -6   1  228.52   33.60
  -8  -6  -2  337.04   46.66
  -8  -6  -2  307.16   46.55
   8   6  -2  270.83   45.83
  -8  -6  -2  423.61   63.04
   8   6  -2  337.21   40.83
   8  -6   2  338.38   40.12
   8  -6  -2  285.69   43.19
  -8  -6   2  337.88   46.24
  -8  -6   2  333.02   45.72
   8   6  -3   48.14   16.78
  -8  -6  -3   52.38   16.96
   8   6  -3   57.37    8.74
  -8  -6  -3   55.86   18.56
  -8  -6  -3   73.48   29.17
   8  -6   3   57.44    8.33
   8  -6  -3   63.10    8.63
  -8  -6   3   74.27   18.40
   8  -6  -3   78.61   14.04
  -8  -6   3   69.56   16.59
  -8  -6  -4   93.18   23.38
  -8  -6  -4  125.08   30.12
   8  -6   4  111.62   14.37
   8   6  -4  110.41   14.46
   8  -6   4   67.08   30.43
   8   6  -4  109.19   23.91
  -8  -6  -4   70.30   29.96
   8  -6  -4  104.94   14.52
  -8  -6   4   85.81   23.02
  -8   6  -4   99.72   19.19
  -8  -6   4   92.25   20.25
   8  -6  -4  115.18   18.59
   8  -6  -4   96.59   15.67
   8  -6  -4  149.00   20.67
   8   6  -5   64.73   21.03
  -8  -6  -5   53.79   17.01
   8  -6   5   27.39   32.64
  -8  -6  -5  107.79   34.50
   8   6  -5   59.96    9.99
   8  -6   5   69.57   10.93
  -8  -6  -5   93.05   31.95
   8  -6  -5   59.75   10.23
   8  -6  -5   40.85   14.75
  -8   6  -5   23.98   15.18
  -8  -6   5   51.71   14.26
  -8  -6   5   67.38   21.91
  -8  -6  -6   -1.94   27.55
  -8  -6  -6   88.00   10.93
  -8  -6  -6   84.42   10.60
  -8  -6  -6   94.76   23.06
   8  -6   6   88.95   14.50
   8   6  -6   89.79   12.24
  -8   6   6    4.92   41.29
   8  -6   6   66.49   45.61
   8   6  -6   40.33   19.71
  -8  -6  -6   75.84   36.57
  -8  -6   6   89.50   18.47
   8  -6  -6   58.22   19.81
  -8  -6   6   44.14   24.77
   8  -6  -6   90.09   12.54
  -8   6  -6   55.29   19.50
  -8  -6  -7   45.70   16.21
  -8  -6  -7   23.82    4.43
   8   6  -7   10.95   18.05
   8   6  -7   30.82    6.19
  -8  -6  -7   12.14   29.91
  -8   6   7  -19.53   43.54
   8  -6   7  -73.38   45.86
  -8  -6  -7   12.18    4.91
  -8  -6  -7   18.51   34.31
  -8  -6   7   17.16   29.48
  -8   6  -7  -10.21   16.16
   8  -6  -7   24.32    6.54
  -8  -6   7   41.49   11.46
   8  -6  -7   -3.39   17.10
  -8  -6  -8  -28.28   28.73
  -8   6   8   58.18   55.81
   8   6  -8   50.19   23.51
   8   6  -8   68.51   11.94
  -8  -6  -8   84.85   44.27
  -8  -6  -8   62.61    8.80
  -8   6  -8   23.39   25.22
  -8  -6   8  -17.65   34.98
   8  -6  -8   77.34   12.89
  -8  -6   8   61.95   15.92
   8  -6  -8   62.28   26.22
  -9  -6   0    4.54   28.25
  -9  -6   0    0.16    7.76
   9   6   0   15.90    4.51
   9  -6   0    3.81    6.12
  -9  -6   0    2.36    6.11
  -9  -6  -1   25.42   27.67
  -9  -6  -1   -2.76    5.78
   9   6  -1   -0.36    2.53
   9  -6   1    7.43    6.38
  -9  -6  -1   13.30    9.29
  -9  -6   1    5.77    9.54
  -9  -6   1    3.14    7.11
   9   6   1    9.39    4.02
  -9  -6  -2  -35.61   23.86
   9  -6   2   -0.22    1.24
  -9  -6  -2    1.84    7.03
   9   6  -2  -22.34   12.36
   9   6  -2   -0.93    2.00
  -9  -6  -2  -13.51    9.81
   9   6   2    2.10    2.49
   9  -6  -2   -5.88    2.84
  -9  -6   2    3.26   10.73
  -9  -6   2   -3.40    4.36
   9  -6   3    2.01    2.22
  -9  -6  -3  -23.04   21.76
   9   6  -3    3.32   13.85
  -9  -6  -3  -10.56   12.48
  -9  -6  -3   -1.82    6.64
   9   6  -3    1.83    2.44
  -9  -6   3    6.23    7.56
  -9  -6   3   -4.38   12.30
   9  -6  -3    4.28    4.46
   9  -6  -3    1.99    2.34
  -9  -6  -4  -16.83   17.70
   9   6  -4    0.58    2.39
   9  -6   4    1.21    2.78
   9   6  -4   -9.81   15.48
  -9  -6  -4   43.01   26.13
  -9  -6  -4   -1.84    7.09
  -9  -6   4  -12.25   16.79
   9  -6  -4    3.79    4.48
  -9  -6   4   -0.88    4.32
  -9   6  -4    4.19    8.73
   9  -6  -4   -1.99    2.06
  -9  -6  -5  -30.32   22.92
  -9  -6  -5    1.99    8.73
  -9  -6  -5   -7.97   25.23
   9  -6   5    8.21    4.28
   9   6  -5   -8.83   17.76
   9  -6   5   56.16   38.95
   9   6  -5    1.46    2.82
  -9  -6   5   10.64    7.13
   9  -6  -5  -17.62   11.28
   9  -6  -5    0.73   11.20
  -9  -6   5   -3.68   20.34
  -9   6  -5   12.71   11.14
   9  -6  -5    6.93    3.38
  -9  -6  -6   10.06   31.88
  -9  -6  -6  -18.57   29.46
   9  -6   6   -1.26    3.18
   9   6  -6    2.55    3.11
  -9  -6  -6    8.14    6.75
   9  -6   6   28.42   45.75
   9   6  -6   -9.62   18.15
   9  -6  -6    6.80   15.42
  -9   6  -6  -13.59   14.23
  -9  -6   6    1.28    4.48
   9  -6  -6   -1.63    2.41
  -9  -6   6   38.27   27.58
  -9  -6  -7    5.46    7.50
   9   6  -7  -15.59   21.00
  -9  -6  -7    8.56   35.26
   9   6  -7   -1.55    2.83
   9  -6  -7    4.53    3.76
  -9  -6   7    8.00   32.56
  -9  -6   7    3.70    6.51
   9  -6  -7   10.81   17.17
 -10  -6   0   75.72   32.61
  10   6   0  105.23   15.45
 -10  -6   0  135.92   26.46
 -10  -6   0   97.65   19.37
 -10  -6  -1   46.30   25.90
 -10  -6  -1   27.28   11.71
 -10  -6  -1   47.95   16.80
  10   6  -1   41.02    8.73
  10  -6   1   44.52    5.45
 -10  -6   1   14.77   12.68
  10  -6  -1   66.41   17.28
  10   6   1   23.42    8.33
 -10  -6   1   -3.98   33.50
 -10  -6   1   67.11   19.12
 -10  -6  -2   91.01   28.21
 -10  -6  -2   66.39   21.54
 -10  -6  -2   47.43   15.77
  10  -6   2   75.68    9.46
  10   6  -2   65.26   10.30
 -10  -6   2  106.61   23.66
  10  -6  -2   68.93    9.23
  10  -6  -2   65.94   16.59
 -10  -6   2   52.87   17.95
  10  -6   3   58.85    7.67
  10   6  -3   50.83    8.95
 -10  -6  -3   59.29   17.79
  10   6  -3   46.95   19.07
 -10  -6  -3    5.72   25.46
 -10  -6  -3   89.06   22.54
 -10  -6   3   37.30   12.82
 -10  -6   3   51.18   20.79
  10  -6  -3   42.71    7.11
  10  -6  -3   57.52   14.94
  10  -6   4  113.05   15.13
 -10  -6  -4   85.81   27.62
  10   6  -4  110.36   14.93
  10   6  -4  137.47   28.33
 -10  -6  -4   96.15   34.09
 -10  -6  -4   63.09   21.53
 -10  -6   4  141.80   28.25
  10  -6  -4  103.71   14.63
  10  -6  -4  121.38   21.09
 -10  -6  -5   52.62   32.65
  10  -6   5   54.69   10.13
 -10  -6  -5   44.47   18.16
  10   6  -5   35.45   23.28
  10   6  -5   40.22    8.14
 -10  -6  -5  149.59   35.48
  10  -6  -5   38.05    8.04
 -10  -6   5   56.28   15.42
 -10   6  -5   28.07   13.34
 -10  -6   5   35.70   28.64
 -10  -6  -6   74.23   21.53
  10   6  -6   99.85   30.76
  10   6  -6   57.63   11.57
 -10  -6  -6   13.47   37.28
 -10  -6   6   68.37   35.86
 -10  -6   6   54.86   17.18
  10  -6  -6   67.71   18.48
  10  -6  -6   83.04   11.02
  11   6   0    4.28    4.68
 -11  -6   0    8.34   10.00
 -11  -6  -1   -0.98    8.47
  11   6  -1    8.48    3.74
  11   6   1   13.46    4.69
 -11  -6   1    6.73    8.72
  11   6  -2    2.01    2.34
  11  -6   2    1.55    2.40
 -11  -6  -2   -3.75   20.52
 -11  -6  -2    9.02   11.29
 -11  -6  -2   -6.65    5.61
  11  -6  -2   -1.49    1.29
 -11  -6   2   -3.33    5.65
  11  -6   3    1.15    3.09
 -11  -6  -3   38.96   24.61
 -11  -6  -3   -6.58   12.99
  11   6  -3   10.36    3.87
 -11  -6  -3   22.13    9.92
 -11  -6   3   14.87   10.61
 -11  -6   3    3.07   20.56
  11  -6  -3    0.98    5.00
  11   6  -4    9.99   21.10
 -11  -6  -4    8.24   19.29
   0   7   0    0.29    2.96
   0  -7   0    7.30    2.71
   0  -7   0   -3.29    3.34
   0   7   0    5.91    2.65
   0   7   1    4.84    5.48
   0  -7   1    1.55    2.37
   0  -7  -1    5.23    3.96
   0  -7  -1    1.22    2.45
   0  -7   1    2.61    1.74
   0   7  -1   -0.23    1.40
   0   7  -1    2.48    4.95
   0  -7  -2   -0.47    1.70
   0   7  -2   -0.11    1.29
   0  -7   2    1.62    1.50
   0  -7  -2    2.40   16.42
   0   7  -2   -2.00    4.51
   0  -7   2    0.11    2.24
   0  -7  -2    2.07    4.63
   0   7  -3   -7.92    5.14
   0  -7  -3    0.71    2.03
   0  -7   3   -0.19    1.33
   0  -7   3    1.69    6.36
   0   7  -3    1.10    1.62
   0  -7  -3    1.26   14.28
   0  -7  -4    0.07    2.39
   0   7   4   -0.92    1.98
   0  -7  -4   19.88   14.85
   0  -7  -4   -0.19    2.58
   0  -7   4    5.28    2.72
   0   7  -4   -9.51    4.45
   0   7   4    7.72   20.10
   0  -7   4    7.91    6.83
   0   7  -4   -0.44    1.62
   0   7   5    5.31   25.05
   0  -7   5    0.61    2.08
   0   7  -5    2.07    9.59
   0   7  -5   -2.16    1.78
   0  -7  -5    5.87   13.74
   0  -7  -5    0.47    2.34
   0  -7  -5   -3.66    1.97
   0   7   5   -1.37    1.78
   0  -7   5    4.08   12.42
   0   7  -6    2.56    6.85
   0   7   6  -21.42   21.35
   0  -7  -6   -1.18    2.36
   0   7  -6    2.11    2.29
   0  -7  -6  -18.16   15.68
   0   7   6   -0.28    2.57
   0  -7   6    0.86    2.19
   0  -7   6   -9.76   13.58
   0  -7   7    4.32   14.81
   0   7  -7   -2.53   11.06
   0  -7  -7    0.55   16.94
   0  -7   7   -1.70    1.99
   0   7  -7    3.50    2.87
   0   7   7    0.88    3.13
   0  -7  -7   -0.07    3.36
   0   7   7   36.36   31.44
   0  -7  -8    2.89    4.30
   0   7  -8   -6.89   17.52
   0  -7   8   35.44   19.02
   0  -7   8    9.95    4.06
   0  -7  -8   25.28   29.18
   0   7  -8    6.00    3.66
   0   7   8   30.91   53.55
   0   7   8    6.85    5.13
   0   7  -9    1.16    3.45
   0   7  -9   -7.55   17.93
   0   7   9   59.87   68.67
   0  -7  -9    8.35   29.18
   0  -7   9   14.53   25.88
   0  -7  -9    1.73    4.02
   0   7   9    0.79    3.94
   0   7 -10   32.79   46.36
   0  -7 -10   -0.97   28.12
   0   7  10   56.16   56.23
   0  -7  10   88.45   71.26
   0   7  11   51.51   75.77
   0   7 -11   -0.68   26.36
   0   7 -11    2.86    3.68
   0  -7 -11   -7.52   35.75
   0  -7  11    1.76   50.52
   0   7  11   -1.26    2.96
   0  -7 -11   -4.91    3.00
  -1  -7   0  316.26   35.78
   1  -7   0  272.60   35.83
  -1  -7   0  307.64   38.54
   1   7   0  267.32   38.06
   1  -7   0  293.78   37.61
   1   7   0  257.18   35.84
  -1   7   1 2286.44  289.15
  -1  -7  -1 2220.60  287.36
  -1  -7  -1 2468.88  287.78
   1  -7   1 2318.11  288.51
   1   7  -1 2186.69  288.82
  -1  -7  -1 2522.12  290.39
  -1   7  -1 2342.23  288.61
   1  -7  -1 2525.38  289.63
  -1  -7   1 2347.32  289.03
   1  -7   2  284.68   33.97
  -1  -7  -2  280.47   35.25
  -1  -7  -2  231.42   35.47
   1   7  -2  284.19   34.06
  -1  -7  -2  306.60   39.19
  -1  -7  -2  169.67   43.06
   1  -7   2  266.54   36.72
   1   7  -2  323.03   38.43
  -1  -7   2  277.68   33.97
   1  -7  -2  292.60   50.07
   1  -7  -2  261.63   37.56
  -1   7  -2  259.05   34.02
   1  -7   3 1786.34  235.52
  -1  -7  -3 2074.13  244.85
  -1  -7  -3 1959.52  233.19
   1  -7  -3 1979.32  242.43
   1  -7  -3 1966.91  231.93
   1   7   3 1909.26  232.93
  -1  -7   3 1863.36  235.79
  -1   7  -3 1750.03  234.63
   1   7  -4  704.97   98.54
  -1  -7  -4  783.52   95.62
  -1   7   4  600.85  106.90
  -1  -7  -4  764.63   96.17
   1  -7   4  796.58   94.88
   1  -7   4  836.37  100.88
   1   7  -4  737.40   94.71
  -1   7  -4  748.30   98.74
   1  -7  -4  872.13  106.84
  -1  -7   4  768.99   94.90
  -1   7  -4  788.84   94.72
   1   7   4  718.21  115.66
   1   7   4  781.06   95.90
  -1  -7   4  905.29  101.28
   1  -7  -4  742.46   95.43
  -1   7   5 1095.83  145.81
   1   7  -5 1245.94  136.26
  -1  -7  -5 1018.60  129.09
   1  -7   5 1023.97  127.64
  -1  -7  -5 1171.56  128.63
   1  -7   5 1067.56  135.01
   1   7  -5 1033.96  127.49
  -1   7  -5  941.35  132.14
  -1  -7   5  958.10  134.07
   1   7   5  965.25  128.47
  -1  -7   5 1036.18  127.72
   1  -7  -5  991.46  128.23
   1  -7  -5  994.70  138.70
  -1   7  -5 1081.65  127.45
  -1   7   6  367.07   86.51
   1  -7   6  180.04   36.52
   1   7  -6  162.99   33.35
  -1  -7  -6  267.12   48.69
  -1  -7  -6  222.89   30.11
  -1  -7  -6  226.99   29.15
   1   7  -6  217.02   28.20
   1  -7   6  220.52   28.51
  -1  -7   6  211.08   28.48
   1  -7  -6  241.12   29.31
   1  -7  -6  325.60   61.97
  -1   7  -6  223.78   28.14
  -1   7  -6  230.06   35.88
   1   7   6  213.98   55.17
   1   7   6  210.93   29.21
  -1  -7  -7  254.92   35.73
  -1  -7  -7  399.40   65.28
   1   7  -7  284.38   43.74
   1  -7   7  302.33   35.66
   1   7  -7  284.16   35.03
   1  -7   7  234.28   49.01
  -1   7   7  158.19   53.17
  -1  -7   7  222.77   48.00
   1  -7  -7  263.27   35.79
  -1   7  -7  353.31   49.43
  -1   7  -7  268.83   34.81
   1  -7  -7  204.89   44.66
  -1  -7   7  262.23   35.33
   1   7   7  477.10   99.51
   1   7   7  290.83   36.43
  -1   7   8  148.40   56.03
   1   7  -8  360.39   58.92
  -1  -7  -8  175.25   24.84
   1   7  -8  154.67   23.78
  -1  -7  -8  253.98   44.89
   1  -7   8  170.06   25.43
   1  -7   8  153.67   37.35
   1   7   8  257.79   65.71
  -1  -7   8  202.96   25.04
  -1   7  -8  184.85   36.80
   1  -7  -8  176.45   24.95
  -1   7  -8  171.60   23.88
  -1  -7   8  144.27   36.41
   1   7   8  208.51   25.69
   1  -7  -8  201.35   43.56
  -1  -7  -9  169.68   45.27
   1  -7   9   81.56   34.75
   1   7  -9  267.83   57.89
   1   7  -9  165.58   23.86
  -1  -7  -9  168.04   24.91
  -1   7   9  189.51   67.77
   1  -7  -9  166.04   24.79
   1   7   9  214.64   26.10
   1  -7  -9  210.52   45.51
  -1   7  -9  192.57   24.10
   1   7   9  152.41   66.21
  -1  -7   9  144.37   37.84
  -1   7  -9  239.90   48.05
  -1  -7 -10   30.57    9.27
   1  -7  10  110.08   44.86
   1   7 -10   49.34    9.82
   1   7 -10   57.58   36.03
  -1   7  10    6.71   53.87
  -1  -7 -10   37.59   30.45
  -1   7 -10   44.93   22.50
   1  -7 -10   57.07   29.65
   1  -7 -10   42.42    9.91
  -1  -7  10   25.75   27.55
   1   7  10   50.58   12.81
   1   7  10   35.84   56.84
  -1   7 -10   42.09    9.67
  -1  -7 -11   54.27   12.03
   1   7 -11   69.38   28.13
   1  -7  11   89.26   47.02
  -1  -7 -11   34.88   40.44
   1   7 -11   70.12   12.87
  -1   7  11   69.90   67.34
   1  -7 -11   -6.16   36.29
  -1   7 -11   67.93   12.17
   1   7  11  176.52   88.84
   1   7  11   81.96   16.23
  -1  -7  11  -90.37   45.40
  -1   7 -11   11.19   26.30
   1  -7 -11   47.81   12.38
   2   7   0   -2.67    3.61
  -2  -7   0    4.82    2.85
  -2   7   0   -1.09    3.22
   2  -7   0    1.82    3.22
   2  -7   0    1.71    1.94
  -2  -7   0   -7.41    3.99
   2   7   0    1.29    2.02
  -2  -7   0   -0.85    1.20
  -2  -7  -1    4.76    2.27
   2  -7   1    1.36    2.86
  -2  -7  -1    0.47    2.33
  -2   7   1    5.33    3.91
   2  -7   1    1.26    1.56
   2   7  -1    0.45    4.44
   2   7  -1    2.87    1.89
  -2  -7  -1   -1.56    4.39
  -2   7  -1    3.65    1.69
   2  -7  -1    1.12    3.58
  -2  -7   1    0.72    1.33
   2   7   1   -0.85    2.05
  -2  -7   1   -4.54    7.66
   2   7   1   -2.70    3.80
   2   7   1    3.07    2.30
  -2   7  -1   -0.95    3.33
  -2  -7  -2   -7.96    5.98
   2   7  -2    1.01    1.69
   2  -7   2   -5.65    3.09
  -2  -7  -2    4.84   11.46
   2   7  -2   -1.48    3.49
   2  -7   2   -1.62    1.20
  -2  -7  -2   -1.34    2.53
  -2  -7  -2    3.42    3.62
  -2   7  -2   -3.91    2.77
   2  -7  -2    3.46    9.75
   2   7   2    0.80    2.77
   2  -7  -2    3.93    4.74
  -2  -7   2   -0.81    1.23
  -2  -7   2    0.30    3.98
  -2   7  -2   -0.94    1.58
  -2  -7  -3    6.84    8.42
   2   7  -3    2.39    1.98
  -2  -7  -3   -2.58    3.25
  -2  -7  -3    1.50    3.45
  -2  -7  -3   -4.11   15.07
   2  -7   3    1.19    1.62
   2  -7   3   -2.15    5.57
  -2  -7  -3    1.53    2.21
   2   7  -3    3.42    4.47
  -2  -7   3    5.57    4.68
  -2   7  -3    0.78    4.30
   2  -7  -3  -24.24    9.93
  -2   7  -3   -0.32    1.59
   2   7   3   -3.14    1.69
  -2  -7   3    2.42    1.92
  -2  -7  -4    1.46    2.72
   2  -7   4  -10.00    6.19
   2   7  -4   10.78   11.57
  -2   7   4    6.43   14.97
   2   7  -4    1.02    1.71
  -2  -7  -4    3.22   14.17
  -2  -7  -4   -0.61    3.01
   2  -7   4    0.50    1.70
  -2   7  -4    1.73    1.86
   2  -7  -4   -6.82   11.21
  -2   7  -4   -6.44    5.47
  -2  -7   4    6.44    7.55
  -2  -7   4   -0.44    2.08
   2   7   4    1.48    3.14
   2  -7   5   -0.13    9.48
  -2  -7  -5  -15.11   14.51
  -2  -7  -5   -4.82    1.92
  -2   7   5  -13.11   18.39
   2   7  -5    1.11    7.97
   2  -7   5    2.51    2.23
  -2  -7  -5    3.58    4.26
   2   7  -5    0.93    2.01
   2   7   5    1.22    3.09
  -2  -7   5    4.45    2.92
   2  -7  -5   -2.50   14.24
   2   7   5   -0.94   20.72
  -2   7  -5   -0.15    1.90
  -2  -7   5   27.17   14.18
   2  -7  -5   -3.73    1.39
  -2   7  -5   -2.41    6.55
   2   7  -6    2.22    2.68
  -2   7   6   20.51   26.17
  -2  -7  -6   20.37   19.57
   2  -7   6   -0.26    2.40
  -2  -7  -6    2.75    3.28
   2   7  -6    1.69    9.48
  -2  -7  -6    4.50    5.22
   2  -7   6   -6.49   10.99
  -2  -7   6    3.68    3.21
  -2  -7   6   19.30   23.02
   2  -7  -6   23.88   15.67
   2   7   6    2.65    4.42
  -2   7  -6   -1.67    8.70
  -2   7  -6    2.17    2.38
   2   7   6  -46.45   40.92
   2  -7  -6    2.21    3.51
   2   7  -7    1.84    2.89
  -2  -7  -7    0.90   18.92
   2   7  -7   45.64   24.33
  -2   7   7  -39.95   35.23
  -2  -7  -7    1.95    3.56
   2  -7   7   -2.51    2.14
   2  -7   7   33.08   24.99
   2  -7  -7   -1.72   17.66
   2  -7  -7    1.55    3.51
  -2  -7   7   16.09   23.94
   2   7   7    7.23    5.35
  -2   7  -7   -0.14    2.19
   2   7   7   -5.46   40.43
  -2   7  -7   -2.12   11.76
  -2  -7   7   16.42    5.23
   2  -7   8   48.50   29.23
  -2  -7  -8    2.27    4.38
  -2   7   8   45.93   31.52
  -2  -7  -8    6.58   25.03
   2   7  -8   -2.59   11.73
   2   7  -8   11.01    4.03
   2  -7  -8   -1.42   19.60
   2  -7  -8   -2.36    3.10
  -2   7  -8    0.91   20.47
  -2   7  -8    4.09    3.11
  -2  -7   8   21.63   18.19
   2   7   8    4.44    6.11
  -2  -7   8   -0.81    2.81
   2   7   8   85.99   59.24
   2   7  -9   20.43   15.83
  -2  -7  -9   -3.78    3.07
  -2  -7  -9   69.74   39.95
   2   7  -9    2.46    3.32
   2  -7   9   -1.10    4.47
  -2   7   9  -27.59   39.79
   2  -7   9  -76.34   56.68
   2  -7  -9    4.50   24.89
  -2   7  -9    5.90    3.69
   2   7   9   -1.66    4.67
   2  -7  -9   -3.27    2.33
   2   7   9   51.15   47.10
  -2  -7   9   15.04   37.52
  -2   7  -9  -14.70   17.11
   2   7 -10    3.25    3.68
  -2   7  10  -47.57   49.10
  -2  -7 -10   16.84   43.70
  -2  -7 -10   -2.19    3.72
   2  -7  10  -13.57   46.44
   2   7 -10  -18.23   20.09
   2  -7 -10   -2.61    3.55
   2   7  10    0.52    5.41
   2  -7 -10    3.14   26.03
  -2   7 -10    5.69    3.68
   2   7  10   16.11   80.52
  -2  -7  10   12.90   33.70
  -2   7 -10   12.75   26.95
  -2  -7 -11  -17.11   32.86
  -2   7  11  -38.64   73.38
  -2  -7 -11    1.77    4.00
   2   7 -11    1.84    3.54
   2   7 -11  -11.99   28.70
   2  -7 -11    4.51   30.07
   2  -7 -11    2.79    4.19
  -2   7 -11   36.94   33.51
  -2  -7  11  -30.20   32.77
   2   7  11   -1.53   71.68
   2   7  11    7.36    7.62
  -2   7 -11   -1.81    3.55
  -3  -7   0  394.49   44.96
   3   7   0  316.31   48.02
  -3   7   0  340.78   46.67
  -3  -7   0  383.83   47.19
   3   7   0  352.14   45.48
   3  -7   0  367.49   46.37
   3  -7   1 1915.06  227.49
  -3  -7  -1 1936.40  228.10
   3   7  -1 1694.46  228.60
  -3   7  -1 1774.71  227.30
  -3  -7   1 1902.04  227.75
   3   7   1 1859.81  227.65
   3   7   1 1762.85  229.21
   3  -7  -1 1958.53  227.90
  -3  -7  -2  226.77   34.05
   3   7  -2  215.27   28.41
   3  -7   2  255.40   31.77
  -3  -7  -2  230.74   29.52
  -3  -7  -2  229.09   30.96
  -3  -7  -2  159.52   41.97
   3  -7   2  236.40   28.31
   3   7  -2  213.23   31.53
   3  -7  -2  253.63   37.79
  -3  -7   2  236.62   28.38
  -3   7  -2  211.79   30.40
   3   7   2  219.43   30.41
   3  -7  -2  202.16   31.19
  -3  -7   2  243.70   32.31
   3  -7   3 1814.13  229.82
  -3  -7  -3 2137.15  233.77
  -3  -7  -3 1816.96  226.21
  -3  -7  -3 1876.28  239.64
  -3  -7  -3 1855.54  228.31
   3  -7   3 1883.24  225.50
   3   7  -3 1834.45  228.97
  -3   7  -3 1793.00  228.43
   3  -7  -3 1886.46  233.47
   3   7   3 1796.81  227.81
  -3  -7   3 1887.90  230.14
  -3   7  -3 1762.36  225.49
  -3   7   4  153.00   42.33
  -3  -7  -4  227.98   47.80
   3   7  -4  198.87   32.41
  -3  -7  -4  213.27   30.96
   3   7  -4  219.74   28.38
  -3  -7  -4  226.96   29.08
  -3  -7  -4  171.09   30.27
   3  -7   4  268.18   35.77
   3  -7   4  203.52   28.25
  -3   7  -4  208.31   32.42
   3   7   4  243.74   30.84
  -3  -7   4  265.10   28.73
   3  -7  -4  263.36   41.51
  -3   7  -4  227.69   28.21
  -3  -7   4  278.73   35.71
   3  -7   5  502.65   60.07
   3   7  -5  549.71   65.74
  -3  -7  -5  474.74   62.96
   3   7  -5  510.63   60.03
  -3  -7  -5  397.34   62.59
   3  -7   5  439.97   67.79
  -3  -7  -5  455.64   60.49
  -3  -7  -5  399.03   75.02
   3  -7  -5  491.04   60.69
   3   7   5  485.23   62.35
  -3   7  -5  486.97   65.23
  -3  -7   5  469.31   60.12
   3  -7  -5  553.23   71.40
   3   7   5  372.94   87.92
  -3   7  -5  501.10   59.71
  -3  -7   5  483.04   67.55
   3  -7   6  265.73   36.29
  -3  -7  -6  299.33   37.02
  -3   7   6  271.70   59.62
  -3  -7  -6  277.89   55.10
   3  -7   6  280.13   52.29
   3   7  -6  293.57   36.29
   3   7  -6  257.39   42.23
  -3  -7  -6  241.01   38.82
   3  -7  -6  301.77   37.13
  -3  -7   6  344.73   54.22
   3   7   6  175.10   59.33
  -3  -7   6  288.06   36.61
  -3   7  -6  297.14   35.97
   3   7   6  307.36   39.02
  -3   7  -6  259.94   42.55
   3  -7  -6  311.66   52.65
   3   7  -7  391.58   48.57
  -3  -7  -7  355.21   51.99
  -3   7   7  445.55   83.88
   3   7  -7  396.19   56.66
   3  -7   7  368.52   48.86
  -3  -7  -7  393.91   49.27
   3  -7   7  367.99   67.83
   3  -7   7  390.46   53.58
  -3  -7  -7  601.77   88.21
  -3  -7   7  362.59   48.88
  -3   7  -7  382.86   48.17
   3  -7  -7  402.13   49.48
   3  -7  -7  401.57   62.09
   3   7   7  354.45   50.95
  -3   7  -7  414.55   57.20
  -3  -7  -8   76.23   14.00
  -3  -7  -8   57.60   28.82
  -3   7   8  132.05   45.21
   3   7  -8   44.96   19.90
   3  -7   8   82.32   20.26
   3  -7   8   46.60   25.61
   3   7  -8   74.69   13.10
  -3  -7   8   44.23   25.84
   3   7   8   79.12   17.05
   3  -7  -8   34.13   26.75
  -3  -7   8   88.82   14.26
   3   7   8   24.95   41.02
  -3   7  -8   74.87   10.96
   3  -7  -8   83.59   14.65
  -3   7  -8  100.64   27.83
  -3  -7  -9  108.18   15.55
  -3  -7  -9  119.72   39.17
   3   7  -9  126.13   31.02
   3  -7   9  112.29   41.62
  -3   7   9  241.44   66.03
   3   7  -9   90.40   14.66
  -3   7  -9   81.14   27.94
  -3   7  -9   96.92   14.41
   3  -7  -9  102.08   29.78
   3  -7  -9  108.88   18.04
   3   7   9   97.86   20.80
   3   7   9  127.34   78.68
  -3  -7   9  118.69   35.31
  -3  -7 -10   61.01   34.99
  -3   7  10  -19.93   47.26
  -3  -7 -10   47.42   10.64
   3   7 -10   41.59    9.90
   3   7 -10   51.99   26.49
   3   7  10   49.58   63.05
   3   7  10   63.59   16.82
  -3   7 -10   43.93   28.51
  -3   7 -10   62.39   10.44
   3  -7 -10   30.51   30.37
  -3  -7  10   27.19   31.02
   3  -7 -10   48.49   11.44
  -3  -7 -11   72.52   42.27
  -3   7  11   22.27   65.79
   3  -7  11  170.02   67.21
   3   7 -11   65.57   13.43
   3   7 -11   61.86   31.35
  -3  -7 -11   93.42   15.37
   3  -7 -11   79.84   15.19
   3  -7 -11  119.67   47.27
  -3   7 -11   76.27   13.64
  -3  -7  11  -13.76   45.62
  -3   7 -11   66.92   37.96
  -4  -7   0    2.17    1.60
  -4   7   0   -4.12    3.42
   4   7   0    4.14    5.42
   4  -7   0    1.74    3.67
  -4  -7   0    2.02    4.20
  -4  -7   0    0.90    4.49
   4  -7   0    5.59    3.58
   4   7   0    3.77    3.23
   4  -7   0    1.69    1.84
   4   7   0    3.91    2.67
   4  -7   1   -4.36    2.66
   4  -7   1    4.93    4.23
  -4  -7  -1   10.89    6.08
  -4  -7  -1    1.86    1.76
  -4  -7  -1   -0.05    5.71
   4   7  -1    4.21    2.14
   4  -7   1    6.86    1.96
   4   7  -1    6.32    6.11
   4  -7  -1    1.86    3.51
   4   7   1    2.43    2.28
  -4  -7   1    4.04    4.14
  -4   7  -1    2.31    3.93
   4  -7  -1   -3.24    9.73
  -4  -7   1    0.92    4.82
   4   7   1    5.84    3.59
  -4  -7   1    1.08    1.41
   4  -7  -1    3.95    3.83
   4   7   1    5.62    6.65
   4  -7   2    2.61    1.61
  -4  -7  -2    4.47    4.72
  -4  -7  -2   -2.57    8.04
   4   7  -2    3.57    1.94
   4  -7   2    7.88    5.88
  -4  -7  -2   -5.31   16.59
  -4  -7  -2    3.82    2.34
  -4  -7  -2    3.03    2.35
   4   7  -2    1.62    5.50
   4  -7  -2    1.18    5.00
  -4  -7   2    9.40    5.19
   4  -7  -2   -1.43    2.57
   4   7   2    0.91    3.39
  -4   7  -2    1.67    3.93
   4  -7  -2   12.51    9.68
  -4  -7   2   -2.16    3.74
   4   7   2    2.83    2.78
  -4  -7   2    0.39    1.46
  -4  -7  -3    2.42    2.36
  -4  -7  -3   14.00   18.28
  -4  -7  -3    5.52    2.39
   4  -7   3   -2.16    6.67
   4   7  -3    5.85    5.41
   4   7  -3    2.44    1.90
  -4  -7  -3   -1.46    3.12
   4  -7   3    0.66    1.27
   4  -7  -3   -0.75    9.72
  -4  -7   3    2.63    1.96
  -4  -7   3   -1.97    1.59
  -4   7  -3   -5.19    3.97
   4   7   3   -1.31    2.65
  -4   7  -3    0.88    1.45
   4  -7   4    0.27    1.72
  -4  -7  -4   -4.12   18.53
  -4  -7  -4   -1.56    2.85
  -4  -7  -4   -1.81    3.42
   4   7  -4   -3.22    6.05
  -4  -7  -4   -9.95   10.46
  -4  -7  -4    1.15    2.20
   4  -7   4    9.51    9.44
   4  -7   4   -2.02    3.05
   4   7  -4    1.85    2.10
  -4   7   4   13.31   17.59
   4   7   4    5.49    4.90
  -4  -7   4    0.71    1.89
   4  -7  -4   11.62   11.06
  -4   7  -4    3.36    2.00
  -4   7  -4    2.40    6.40
  -4  -7   4   -0.27    8.75
  -4   7   5   17.71   24.08
   4   7  -5    3.30    2.40
   4   7  -5    8.05    8.47
  -4  -7  -5    1.78    5.12
   4  -7   5    1.82    2.21
   4  -7   5    3.02   11.51
  -4  -7  -5   33.56   22.01
   4  -7   5    4.67    6.30
  -4  -7  -5    1.42    4.71
  -4  -7  -5    1.31    2.61
  -4   7  -5    1.29    1.92
   4  -7  -5  -17.71   10.07
   4   7   5    4.52    4.52
  -4   7  -5    0.57    8.39
   4  -7  -5   -1.38    2.08
  -4  -7   5    0.94    2.17
  -4  -7   5   -5.73    9.50
   4  -7   6    4.42   12.75
  -4   7   6   24.88   25.35
  -4  -7  -6    1.20   21.35
   4  -7   6    0.78    4.09
   4   7  -6    4.16    2.94
  -4  -7  -6    4.40    7.12
   4   7  -6   -8.45    9.08
   4  -7   6    1.75    3.34
  -4  -7  -6    4.10    6.45
  -4  -7  -6    3.58    3.64
  -4  -7   6  -16.17   11.15
   4  -7  -6   11.79   14.97
   4   7   6    5.08    6.35
   4   7   6    5.45   30.75
   4  -7  -6    5.56    4.14
  -4   7  -6  -14.88    8.64
  -4   7  -6    2.16    2.45
  -4  -7   6   -0.76    2.56
  -4  -7  -7  -17.04   22.10
   4   7  -7   -0.87    2.30
   4  -7   7   24.84   21.35
  -4  -7  -7    2.36    3.14
  -4  -7  -7    7.12    5.53
   4   7  -7   15.04   11.67
   4  -7   7    4.27    7.22
   4  -7   7    0.14    3.34
  -4  -7   7    2.73   16.41
  -4   7  -7    1.25    2.37
   4   7   7   -3.32    4.18
   4  -7  -7    1.38    3.27
  -4  -7   7   -1.02    2.76
   4  -7  -7   -4.12   12.89
   4   7   7   31.94   37.13
  -4   7  -7   -8.01   10.61
   4   7  -8    8.10    3.78
   4  -7   8   33.40   27.61
  -4  -7  -8   14.87   25.53
  -4  -7  -8    3.55    3.85
  -4   7   8   -1.12   35.22
   4   7  -8   -9.79   12.45
   4  -7  -8  -12.03   17.95
  -4   7  -8    2.43    2.89
  -4   7  -8  -34.34   14.29
  -4  -7   8  -10.45   16.67
   4   7   8   18.13   52.23
  -4  -7   8    2.84    3.43
   4   7   8    1.55    6.15
   4  -7  -8    0.21    3.60
  -4   7   9   17.46   43.96
  -4  -7  -9    4.83    4.10
  -4  -7  -9   -5.27   32.47
   4   7  -9    4.80    3.99
   4   7  -9    6.00   15.29
  -4  -7   9  -43.59   27.05
  -4   7  -9   -0.71   17.64
   4  -7  -9   20.25   23.36
  -4   7  -9    9.84    4.08
   4   7   9    2.25    6.52
   4  -7  -9   -2.40    3.71
   4   7   9   -6.87   50.91
   4  -7  10  -11.01   49.47
   4   7 -10   11.02   20.18
  -4  -7 -10   -1.02   38.73
  -4   7  10  -93.83   55.90
  -4  -7 -10    1.36    4.36
   4   7 -10   -0.81    3.27
  -4   7 -10    7.70    4.05
  -4  -7  10    4.66   37.13
   4  -7 -10    2.72    4.45
  -4   7 -10   11.42   26.92
   4  -7 -10   -4.52   29.02
   5  -7   0  187.16   23.35
   5   7   0  137.53   22.18
   5   7   0  154.18   20.59
   5   7   0  130.58   25.30
  -5  -7   0  152.76   23.81
  -5  -7   0  167.25   23.52
  -5  -7   0  159.55   19.59
  -5  -7  -1 1022.81  125.76
  -5  -7  -1 1082.77  125.30
  -5  -7  -1 1024.44  120.88
   5   7  -1 1018.78  121.44
   5   7  -1  957.53  125.13
   5  -7   1  912.91  124.29
   5  -7   1  987.96  121.00
   5  -7   1 1047.00  122.95
  -5  -7  -1  943.65  121.17
   5  -7  -1  966.72  123.41
   5   7   1  942.24  124.04
  -5   7  -1  998.80  122.49
  -5  -7   1  969.91  124.28
  -5  -7   1 1023.66  120.87
   5   7   1  912.87  125.22
  -5  -7   1  976.25  124.47
   5  -7  -1 1014.35  121.98
  -5  -7  -2  358.42   41.63
   5  -7   2  346.50   45.29
  -5  -7  -2  324.03   41.66
   5  -7   2  313.30   45.23
  -5  -7  -2  385.65   46.12
   5  -7   2  342.70   41.27
  -5  -7  -2  340.58   48.24
   5   7  -2  283.83   45.38
  -5  -7  -2  241.30   57.04
   5   7  -2  329.96   41.64
   5  -7  -2  330.83   43.11
   5   7   2  290.16   44.21
  -5  -7   2  351.51   45.96
  -5  -7   2  327.04   41.33
   5  -7  -2  359.48   44.00
  -5  -7   2  353.89   44.84
   5  -7  -2  341.65   45.89
  -5   7  -2  330.66   43.43
  -5  -7  -3  511.37   61.89
  -5  -7  -3  640.77   71.95
  -5  -7  -3  514.54   79.58
   5  -7   3  439.70   66.30
  -5  -7  -3  510.27   66.06
   5  -7   3  511.94   61.45
   5   7  -3  471.88   65.71
  -5  -7  -3  547.15   62.42
   5   7  -3  510.64   61.74
   5  -7   3  456.68   65.46
   5  -7  -3  461.05   64.60
  -5  -7   3  504.55   64.48
  -5   7  -3  435.57   63.88
  -5  -7   3  508.74   61.59
  -5  -7   3  514.60   67.06
   5   7   3  492.44   65.07
   5  -7  -3  491.31   66.67
   5  -7  -3  490.98   62.33
   5  -7   4  158.14   25.86
   5  -7   4  136.03   30.43
  -5  -7  -4  192.72   43.53
  -5  -7  -4  187.21   23.77
  -5  -7  -4  107.17   36.00
   5   7  -4  201.09   28.02
   5   7  -4  182.49   22.18
   5  -7   4  170.29   21.93
  -5  -7  -4  184.55   22.38
  -5  -7  -4  190.51   26.95
  -5  -7   4  170.23   22.02
  -5   7  -4  167.72   26.13
   5   7   4  160.07   24.93
  -5  -7   4  150.18   29.14
  -5   7  -4  160.20   21.45
  -5  -7   4  168.50   24.60
   5  -7  -4  172.14   30.60
  -5  -7  -5  537.96   81.64
  -5  -7  -5  486.20   67.93
   5   7  -5  470.29   68.25
   5   7  -5  531.04   63.42
   5  -7   5  513.64   63.36
  -5  -7  -5  551.31   63.69
  -5  -7  -5  510.30   65.94
  -5   7   5  477.32   85.22
   5  -7   5  496.24   73.35
   5  -7   5  553.21   68.91
  -5  -7  -5  485.73   77.32
   5  -7  -5  511.01   63.91
  -5  -7   5  516.48   63.45
   5   7   5  470.67   66.68
   5  -7  -5  561.32   72.27
  -5  -7   5  493.77   65.76
  -5  -7   5  602.34   97.98
  -5   7  -5  470.14   68.26
  -5   7  -5  485.34   62.82
  -5  -7  -6   36.66   31.48
   5   7  -6   79.98   12.27
  -5  -7  -6   93.59   20.85
  -5  -7  -6   94.15   19.21
   5  -7   6   93.32   12.57
  -5   7   6  123.35   42.36
   5  -7   6   50.72   23.71
   5  -7   6   85.43   19.27
   5   7  -6   99.10   20.48
  -5  -7  -6   86.89   12.51
  -5  -7   6   84.60   12.46
  -5  -7   6   97.18   17.46
  -5   7  -6   80.77   21.04
   5   7   6  123.88   21.00
  -5   7  -6   88.86   11.86
   5  -7  -6   55.08   19.90
   5  -7  -6   82.07   12.92
   5  -7   7   85.38   32.40
   5   7  -7   98.12   24.16
   5  -7   7  159.34   18.78
   5   7  -7  126.71   17.97
  -5  -7  -7  142.96   42.98
  -5   7   7  123.66   46.21
  -5  -7  -7  145.42   29.09
  -5  -7  -7  155.05   27.35
  -5  -7  -7  131.79   18.36
   5  -7  -7  104.37   30.59
   5  -7  -7  140.62   18.94
   5   7   7  111.89   24.18
  -5   7  -7  134.77   17.54
  -5  -7   7   71.42   25.28
  -5   7  -7  110.22   26.55
  -5  -7   7  152.51   20.94
  -5  -7   7  134.24   18.37
   5   7  -8   67.70   12.37
  -5   7   8   26.17   43.59
  -5  -7  -8   64.53   31.15
  -5  -7  -8   90.28   13.65
   5   7  -8   82.00   25.20
  -5  -7  -8   68.78   18.93
  -5  -7   8   99.40   18.95
   5  -7  -8   76.99   13.94
  -5  -7   8   60.29   28.44
   5   7   8  -63.96   54.62
   5  -7  -8   44.20   24.12
  -5  -7   8   82.09   13.81
  -5   7  -8   63.19   10.40
  -5   7  -8   87.25   26.93
   5   7  -9  125.31   17.86
   5  -7   9   81.84   46.28
  -5  -7  -9   80.87   39.80
   5   7  -9  163.67   35.32
  -5  -7  -9  135.83   18.19
  -5   7  -9   54.72   28.41
  -5  -7   9  116.61   18.62
  -5  -7   9  166.64   20.97
   5  -7  -9  131.45   18.90
   5  -7  -9  101.34   32.25
  -5   7  -9  116.17   17.15
   5  -7  10   47.58   50.53
   5   7 -10   34.95   23.52
   5   7 -10   38.99    9.67
  -5  -7 -10   46.82   10.06
  -5  -7 -10   94.10   41.72
  -5   7  10   60.73   63.09
   5  -7 -10   46.95   30.37
   5   7  10  -41.81   74.72
   5  -7 -10   47.77   11.10
  -5  -7  10   18.91   36.20
  -5   7 -10   62.93   32.90
  -5   7 -10   52.30    9.57
  -5  -7  10   32.09   11.09
   6   7   0    2.15    7.41
  -6  -7   0    1.77    0.88
  -6  -7   0    5.40    6.01
   6  -7   0   -1.79    3.89
   6   7   0   -0.32    2.40
   6   7   0   -1.51    2.65
  -6  -7   0    7.42    6.22
  -6  -7  -1    2.19    1.20
  -6  -7  -1   -0.82    6.63
  -6  -7  -1    2.12    5.10
   6  -7   1    1.66    3.99
   6   7  -1   -0.85    1.68
   6   7  -1    1.14    3.04
   6   7  -1    7.03    7.96
  -6  -7  -1    1.10    0.89
   6  -7   1    4.42    1.42
   6   7   1   10.69    7.29
   6   7   1    1.05    2.27
   6  -7  -1   -0.42    3.91
  -6  -7   1    0.06    0.75
  -6  -7   1    7.54    6.07
  -6  -7   1    4.15    4.33
  -6  -7   1    1.32    0.98
   6  -7   2   11.69    8.54
  -6  -7  -2   -0.68    8.71
   6   7  -2    3.54    2.30
  -6  -7  -2   -0.22    1.45
  -6  -7  -2    0.65    1.34
   6  -7   2    0.97    1.45
   6  -7   2   -1.17    4.38
  -6  -7  -2   -2.25    4.03
  -6  -7  -2  -14.37   20.19
   6   7  -2    4.32    8.94
   6  -7  -2    5.15    5.30
   6   7   2   -1.64    3.11
   6  -7  -2    9.09    5.85
   6  -7  -2    2.55    3.53
  -6  -7   2    0.99    4.14
  -6  -7   2    1.85    1.37
  -6  -7   2   -2.73    6.26
   6   7   2    5.92    3.13
  -6   7  -2  -14.18    4.14
   6   7  -3    3.66    2.38
  -6  -7  -3    0.58    5.55
   6  -7   3   -1.02    5.60
  -6  -7  -3    6.41    2.32
   6  -7   3   -3.92   10.26
  -6  -7  -3  -13.81   11.92
  -6  -7  -3    4.00    2.14
   6   7  -3    3.11    8.35
   6  -7   3    2.31    1.82
  -6  -7  -3   22.27   22.02
  -6  -7   3   13.27    5.62
   6   7   3   -1.53    3.36
  -6  -7   3   -0.75    1.50
   6  -7  -3    6.78    7.15
  -6   7  -3    8.71    5.82
   6  -7  -3    4.04    3.29
   6  -7  -3  -18.54    7.30
  -6  -7   3    6.17    8.10
  -6  -7  -4    3.10    2.48
   6   7  -4    2.05    8.41
   6  -7   4   -1.19    5.60
  -6  -7  -4    0.48    4.65
   6  -7   4    2.07    2.21
   6  -7   4   -0.37   13.11
  -6  -7  -4  -16.04   21.75
   6   7  -4    1.88    2.34
  -6  -7  -4    7.11    2.71
  -6  -7  -4   12.73   14.12
  -6  -7   4   -1.24    4.24
   6  -7  -4    4.59   10.42
  -6  -7   4    1.49    2.18
   6   7   4    0.73    4.39
  -6   7  -4    2.51    6.63
  -6  -7   4   -7.36    9.01
   6  -7  -4    2.55    2.73
  -6  -7  -5    4.21    3.77
  -6  -7  -5   17.04   26.29
  -6   7   5   11.15   28.39
   6   7  -5    2.73    2.45
   6  -7   5   -2.94    1.99
   6  -7   5    0.41    5.32
   6  -7   5    3.21   15.75
  -6  -7  -5    2.93    6.64
   6   7  -5    4.39    8.80
  -6  -7  -5   27.67   20.41
  -6  -7  -5    2.68    2.56
   6  -7  -5   -2.70   10.95
   6  -7  -5    0.18    2.68
  -6  -7   5   -9.57   11.34
  -6  -7   5    0.98    2.98
  -6  -7   5    2.21    2.37
   6   7   5    1.09    4.83
  -6   7  -5  -16.55    8.08
  -6  -7  -6    0.96    2.85
   6  -7   6   16.03   21.90
  -6  -7  -6   -2.70    4.39
   6   7  -6  -11.48   12.30
   6   7  -6    3.75    3.09
   6  -7   6    5.61    3.40
  -6   7   6   13.70   31.10
  -6  -7  -6    1.50    3.65
  -6  -7  -6  -35.69   24.95
  -6  -7   6   -4.43   15.74
   6   7   6    2.90    6.51
   6  -7  -6    3.17   14.99
  -6  -7   6    7.07    5.60
  -6  -7   6    2.43    3.12
   6  -7  -6    0.89    3.24
  -6   7  -6    5.54   10.97
  -6   7  -6    1.50    2.04
   6   7  -7    0.51    2.93
  -6  -7  -7  -27.18   26.59
   6   7  -7  -19.02   12.84
   6  -7   7    2.95    3.13
  -6  -7  -7   -0.27    5.17
  -6  -7  -7   10.29    3.60
  -6  -7  -7    5.85    5.15
  -6   7   7   38.53   40.44
  -6   7  -7   13.22   13.65
  -6  -7   7   11.08   23.34
  -6  -7   7    3.49    3.60
  -6   7  -7    5.31    2.85
   6  -7  -7    2.04    4.04
  -6  -7   7    1.87    3.62
   6  -7  -7   38.01   19.59
   6   7  -8  -30.08   14.88
  -6  -7  -8    2.90    3.44
   6   7  -8    6.30    3.97
  -6  -7  -8  -22.97   31.18
  -6   7   8   21.60   42.57
  -6  -7  -8    4.80    7.38
   6  -7   8  -31.99   32.77
  -6  -7   8    6.30    4.64
  -6   7  -8    4.48   16.68
   6  -7  -8    4.72    4.15
   6  -7  -8   50.23   22.80
  -6   7  -8    2.13    3.16
  -6  -7   8   10.77    6.35
  -6  -7  -9    6.20   37.08
  -6  -7  -9    1.06    3.08
   6   7  -9   -0.06    3.15
   6   7  -9   28.91   19.09
   6  -7   9  -32.27   44.80
  -6   7   9   38.64   53.38
  -6   7  -9  -35.32   20.34
  -6  -7   9   -3.37    3.33
  -6   7  -9    1.57    2.89
  -6  -7   9    2.05   29.46
  -6  -7   9    5.37    4.76
   6  -7  -9   -1.68   25.44
   6  -7  -9   -1.35    3.61
   7   7   0   86.60   14.08
   7   7   0  114.19   21.42
  -7  -7   0  112.24   20.09
   7   7   0  112.55   20.69
  -7  -7   0  113.85   23.37
   7  -7   0  116.46   17.43
  -7  -7  -1  276.75   39.09
   7  -7   1  303.35   38.60
   7   7  -1  261.38   37.17
   7  -7   1  266.97   33.23
   7   7  -1  270.60   39.44
  -7  -7  -1  211.25   37.56
   7   7  -1  272.05   34.16
  -7  -7   1  308.78   39.05
   7  -7  -1  292.83   37.21
  -7  -7   1  288.96   38.20
   7   7   1  227.38   36.92
  -7  -7  -2  230.09   38.14
   7   7  -2  198.59   36.70
  -7  -7  -2  280.87   37.83
   7  -7   2  265.80   36.28
  -7  -7  -2  287.51   56.59
   7  -7   2  259.77   30.99
   7   7  -2  241.69   31.60
  -7  -7   2  225.40   36.48
   7   7   2  241.12   35.42
   7  -7  -2  281.39   34.26
  -7  -7   2  237.09   35.65
  -7  -7  -3  476.78   59.77
  -7  -7  -3  404.63   47.87
  -7  -7  -3  349.08   54.14
   7  -7   3  364.64   57.03
   7  -7   3  393.39   48.49
   7   7  -3  416.92   55.90
   7   7  -3  390.59   48.89
  -7  -7  -3  295.56   64.98
  -7  -7  -3  401.67   47.84
   7   7   3  417.32   53.67
  -7  -7   3  378.03   54.98
   7  -7  -3  402.95   50.88
  -7   7  -3  356.79   50.79
   7  -7  -3  403.49   50.66
  -7  -7   3  391.04   52.85
   7  -7  -3  360.37   50.74
  -7  -7  -4   77.31   33.15
   7  -7   4   79.44   19.03
  -7  -7  -4   82.41   17.82
   7   7  -4   77.55   19.52
  -7  -7  -4   71.32    9.42
   7   7  -4   58.71   10.06
  -7  -7  -4   91.62   26.50
   7  -7   4   72.09   24.91
  -7  -7  -4   69.74    9.54
   7  -7   4   75.52    9.99
  -7   7  -4   67.95   15.09
   7  -7  -4   78.84   13.35
   7   7   4   60.53   14.66
   7  -7  -4   67.67   10.30
  -7  -7   4   90.80   17.58
  -7  -7   4   83.69   19.61
   7  -7  -4   66.48   15.51
   7  -7  -4   93.72   16.85
   7   7  -5  122.66   18.06
  -7  -7  -5  158.16   18.44
  -7  -7  -5  178.91   32.69
   7  -7   5  139.50   18.17
  -7  -7  -5  160.39   37.53
  -7  -7  -5  128.10   38.48
  -7  -7  -5  136.60   17.55
   7   7  -5   84.10   23.96
   7  -7  -5  129.35   18.45
   7  -7  -5  114.92   25.20
  -7  -7   5  142.56   17.55
  -7  -7   5  129.68   30.79
  -7  -7   5  129.90   21.13
  -7   7  -5  138.14   25.70
  -7  -7  -6  101.41   13.62
  -7  -7  -6  120.71   26.07
  -7  -7  -6   79.40   30.26
   7  -7   6  120.09   14.68
   7   7  -6  105.45   14.38
  -7   7   6   85.65   40.98
  -7  -7  -6  120.64   15.67
   7   7  -6   67.97   21.25
  -7  -7   6  139.47   22.42
   7  -7  -6   80.92   23.49
   7  -7  -6   88.22   14.54
  -7   7  -6   96.33   22.70
  -7  -7   6   67.44   26.96
  -7  -7   6   91.30   13.68
  -7  -7  -7  168.06   24.80
   7  -7   7    9.27   38.80
  -7   7   7  103.21   51.36
  -7  -7  -7  118.32   38.87
   7   7  -7  134.44   18.44
  -7  -7  -7   86.66   39.10
   7   7  -7  145.76   29.94
  -7  -7  -7  127.76   17.75
  -7  -7  -7  151.02   30.10
   7  -7  -7  147.63   30.64
  -7   7  -7  186.14   32.42
  -7  -7   7  116.47   35.53
  -7  -7   7  160.29   21.66
  -7   7  -7  124.29   16.71
   7  -7  -7  156.77   19.39
  -7  -7   7  123.66   18.00
  -7  -7  -8   31.50   11.12
  -7   7   8   44.81   48.46
  -7  -7  -8   39.42   35.53
   7  -7   8   -4.53   48.02
   7   7  -8   35.53    7.56
  -7  -7  -8   44.94    7.55
   7   7  -8   32.06   19.01
  -7   7  -8   27.84    5.95
  -7  -7   8   31.80   30.04
  -7  -7   8   45.71   12.26
  -7   7  -8   14.98   18.80
   7  -7  -8   22.04    7.10
   7  -7  -8   34.47   22.76
  -7  -7  -9   40.43   44.20
  -7  -7  -9   56.35   10.15
  -7   7   9   38.87   60.61
   7   7  -9   28.48   23.81
   7   7  -9   54.40   10.85
  -7  -7  -9   84.49   17.83
   7  -7  -9   65.36   27.83
  -7   7  -9   21.41   38.96
  -7   7  -9   66.84   10.26
  -7  -7   9   74.35   15.60
   7  -7  -9   47.84   11.16
  -7  -7   9  -13.70   36.16
   8   7   0   -0.56    4.97
   8   7   0    7.02    3.56
  -8  -7   0    1.37    6.64
   8  -7   0    1.94    5.25
  -8  -7   0  -11.16    7.09
   8  -7   1   13.05    9.61
  -8  -7  -1   16.65    9.73
   8   7  -1   -4.90    3.91
  -8  -7  -1   -9.59    8.06
  -8  -7  -1   19.04   26.14
   8  -7   1    5.00    1.50
   8   7  -1   -0.55   11.33
   8   7  -1    7.24    3.32
  -8  -7   1    4.65    5.98
   8   7   1    8.55    3.69
  -8  -7   1   -2.42    8.16
   8   7   1    6.99    5.55
   8  -7  -1    1.90    5.69
  -8  -7  -2   10.67    8.67
   8   7  -2    4.24    2.74
  -8  -7  -2   36.06   27.31
   8   7  -2   -4.21   10.81
   8  -7   2    2.22    1.80
   8  -7   2    5.10    5.81
  -8  -7  -2   -9.46   10.23
  -8  -7   2   -3.23    3.79
  -8  -7   2   -8.62    9.13
   8   7   2    9.60    3.75
   8  -7  -2   11.75    5.61
  -8  -7  -3  -15.98   13.32
   8  -7   3  -27.41   19.02
  -8  -7  -3   -5.61   24.74
   8   7  -3  -23.29   11.70
  -8  -7  -3    3.04    6.89
   8  -7   3    4.45    1.94
   8   7  -3    0.44    2.20
   8  -7  -3   -3.32    2.44
  -8  -7   3    8.52   11.64
  -8  -7   3    5.30    4.14
  -8  -7  -4   -0.94   16.45
   8   7  -4  -14.76   13.40
   8  -7   4    5.66   25.64
  -8  -7  -4   -5.10    5.44
   8   7  -4    1.69    2.37
   8  -7   4   -0.85    1.97
  -8  -7  -4  -17.54   24.75
  -8  -7   4   12.37    6.14
   8  -7  -4    0.89    9.49
  -8   7  -4    9.87    8.72
  -8  -7   4  -20.77   12.60
   8  -7  -4   -0.25    2.33
   8  -7  -4  -12.36    7.70
   8  -7  -4   -0.51    3.12
   8   7  -5   -0.08   14.88
  -8  -7  -5  -14.17   26.35
   8  -7   5   32.33   31.33
   8  -7   5    1.60    3.12
  -8  -7  -5  -25.59   21.28
   8   7  -5    2.52    2.84
  -8  -7  -5    1.91    6.44
  -8   7  -5    7.19   10.34
   8  -7  -5   15.69   12.08
   8  -7  -5    6.08   11.33
  -8  -7   5    6.46   16.10
   8  -7  -5    3.27    3.32
  -8  -7   5   -0.08    4.40
   8  -7   6    2.41   36.95
   8  -7   6    4.19    4.20
   8   7  -6    4.43   15.30
  -8  -7  -6    1.28    6.14
  -8  -7  -6   -0.44    1.55
  -8  -7  -6  -31.10   26.80
   8   7  -6    0.80    2.85
  -8  -7  -6  -25.77   25.83
   8  -7  -6    3.94    3.67
   8  -7  -6    1.05   14.33
  -8  -7   6    5.16    5.66
  -8  -7   6  -26.78   20.71
  -8   7  -6   -9.92   12.69
  -8  -7  -7    4.18    3.23
   8   7  -7   -0.02    2.91
  -8  -7  -7   -3.18    5.22
  -8  -7  -7    1.13    2.07
  -8  -7  -7    4.21   32.22
   8  -7   7   -8.22   43.48
  -8  -7  -7  -25.81   33.98
   8   7  -7  -21.58   17.54
  -8  -7   7    4.19    5.71
   8  -7  -7    1.25    3.37
   8  -7  -7   27.12   17.67
  -8  -7   7   50.44   26.55
  -8   7  -7   -9.45   16.00
   8   7  -8    5.93    3.99
  -8  -7  -8    0.61    3.65
  -8   7   8   81.45   60.77
  -8  -7  -8  -10.98   37.81
   8   7  -8  -12.72   21.11
  -8  -7  -8    2.02    2.35
  -8  -7  -8   16.67   31.17
  -8  -7   8   -5.97   29.14
   8  -7  -8   -0.19    3.62
   8  -7  -8   -2.38   22.46
  -8  -7   8    6.84    5.11
  -9  -7   0  171.51   43.92
  -9  -7   0  116.30   22.60
   9   7   0  109.08   17.40
  -9  -7   0  160.34   28.18
   9  -7   0  202.04   32.60
   9   7  -1  177.43   24.26
  -9  -7  -1  169.71   34.57
   9  -7   1  190.09   22.64
  -9  -7  -1  144.12   43.64
   9  -7   1  180.68   28.99
  -9  -7  -1  181.84   29.96
  -9  -7   1  248.43   39.89
  -9  -7   1  191.37   31.05
   9   7   1  143.67   24.66
   9  -7  -1  219.79   28.47
  -9  -7  -2   71.80   31.72
  -9  -7  -2   21.35   14.39
  -9  -7  -2   49.55   16.67
   9   7  -2   43.77   16.60
   9  -7   2   49.16    6.33
   9   7  -2   45.45    8.34
  -9  -7   2   26.71   14.45
  -9  -7   2   50.95   14.20
   9  -7  -2   63.33   14.87
   9   7   2   31.55   10.01
  -9  -7  -3   61.32   33.14
  -9  -7  -3  105.05   24.52
   9   7  -3  104.14   14.70
  -9  -7  -3  128.00   27.65
   9  -7   3  119.20   14.23
   9   7  -3   94.77   23.78
   9  -7  -3   94.28   14.18
   9  -7  -3  120.31   17.37
  -9  -7   3   92.29   23.52
  -9  -7   3  131.97   25.56
   9  -7   4   94.25   12.15
   9   7  -4   73.68   12.08
  -9  -7  -4  111.58   25.80
  -9  -7  -4  115.38   28.29
   9   7  -4   84.03   24.61
  -9  -7  -4   36.72   33.68
   9  -7  -4   87.77   12.20
  -9  -7   4   58.62   22.60
  -9   7  -4   76.36   16.00
   9  -7  -4  104.64   17.55
  -9  -7   4   96.17   20.60
  -9  -7  -5  157.23   30.77
  -9  -7  -5   70.65   34.88
   9   7  -5  127.68   31.34
   9   7  -5  117.95   17.03
   9  -7   5   58.21   40.62
   9  -7   5  148.62   17.60
  -9  -7  -5   85.99   33.84
   9  -7  -5  101.46   22.25
  -9  -7   5   95.50   29.91
   9  -7  -5  149.49   22.72
  -9   7  -5  108.66   22.78
  -9  -7   5  194.53   30.83
   9  -7  -5  117.98   17.02
  -9  -7  -6   35.62   13.64
   9   7  -6   39.98    7.93
   9  -7   6   94.75   49.84
   9  -7   6   42.70    8.94
   9   7  -6   47.41   22.43
  -9  -7  -6   72.18   38.34
  -9  -7  -6   12.18   33.00
  -9  -7   6   53.09   14.25
  -9  -7   6   32.37   25.45
   9  -7  -6   33.72    8.16
   9  -7  -6   26.96   16.04
  -9   7  -6   19.43   15.20
   9  -7  -6   11.84   16.37
   9   7  -7   59.14   11.10
   9   7  -7   86.71   26.82
  -9  -7  -7  -45.10   38.86
  -9  -7  -7   86.36   23.52
   9  -7  -7   50.08   20.21
   9  -7  -7   57.90   11.21
  -9  -7   7   78.67   16.90
  -9  -7   7   14.86   33.12
 -10  -7   0   -4.26    6.02
 -10  -7   0    1.21   10.56
 -10  -7   0    4.36   34.79
  10   7   0    8.32    3.21
 -10  -7  -1  -37.04   28.03
  10  -7   1    0.24    1.18
 -10  -7  -1    7.71    7.93
  10   7  -1    8.46    3.70
 -10  -7  -1   -7.50   10.52
 -10  -7   1   -5.21    4.38
  10  -7  -1    1.71    5.44
 -10  -7   1    4.99   11.60
  10   7   1    3.33    3.00
  10   7  -2    5.20   15.72
  10   7  -2    5.46    3.26
 -10  -7  -2    5.49    9.05
 -10  -7  -2  -22.24   27.43
  10  -7   2    0.49    1.69
 -10  -7  -2    1.26   12.31
 -10  -7   2   -6.40   13.04
 -10  -7   2   11.71    5.81
  10  -7  -2    1.00    1.82
  10   7   2   12.98    4.57
  10  -7  -2    1.35    5.22
  10  -7   3    1.49    2.36
 -10  -7  -3    9.24    9.23
 -10  -7  -3  -19.29   29.37
  10   7  -3  -39.09   17.42
 -10  -7  -3  -12.25   13.44
  10   7  -3   -1.91    1.89
  10  -7  -3   -0.92    1.97
 -10  -7   3    2.26   17.42
  10  -7  -3   -2.22    3.93
 -10  -7   3   -3.17    4.25
  10   7  -4    2.83    3.19
 -10  -7  -4    5.68   30.09
  10   7  -4   19.33   21.13
  10  -7   4    1.57    3.42
 -10  -7  -4    6.18    8.55
 -10  -7  -4   20.36   21.09
 -10  -7   4  -15.71   20.13
  10  -7  -4   14.55    5.92
  10  -7  -4    1.80    2.96
 -10  -7   4    1.75    7.53
  10  -7   5   -1.48    3.57
 -10  -7  -5  -22.14   31.95
  10   7  -5    0.76    2.80
 -10  -7  -5  -15.37   28.16
  10   7  -5  -12.13   23.63
 -10  -7  -5    0.39    7.87
 -10  -7   5   33.23   27.13
  10  -7  -5   -0.80    2.59
 -10  -7   5    3.20    6.79
 -10   7  -5   11.97   11.95
 -11  -7   0   55.78   30.44
  11   7   0   20.30    6.85
 -11  -7   0   13.48    9.73
 -11  -7   0   24.56   13.67
 -11  -7  -1   49.03   28.96
 -11  -7  -1   33.65   15.48
 -11  -7  -1   54.87   15.96
  11   7  -1   70.48   13.16
  11  -7   1   72.53    8.65
  11   7   1   50.35   13.36
 -11  -7   1   45.87   37.25
 -11  -7   1   68.66   20.44
 -11  -7  -2   55.18   20.07
  11   7  -2   47.33    9.18
 -11  -7  -2   31.36   15.37
 -11  -7  -2   11.70   27.52
  11  -7   2   50.66    6.40
 -11  -7   2   41.50   13.60
  11  -7  -2   36.64    5.72
 -11  -7   2   -5.60   17.28
  11  -7   3   76.96   11.64
 -11  -7  -3   66.87   33.65
  11   7  -3   87.94   12.36
 -11  -7  -3   63.40   20.91
 -11  -7  -3  127.28   28.71
 -11  -7   3   45.55   24.15
  11  -7  -3   85.59   11.19
  11  -7  -3   70.90   17.98
 -11  -7   3  107.88   25.23
   0  -8   0 4055.41  495.88
   0   8  -1  172.35   24.40
   0  -8  -1  211.48   27.79
   0   8  -1  165.35   21.92
   0  -8  -1  138.94   22.40
   0  -8   1  182.27   21.71
   0   8   1  147.70   24.54
   0  -8   1  207.53   26.21
   0  -8   2  560.55   71.65
   0   8  -2  578.79   68.70
   0   8  -2  519.11   71.04
   0  -8  -2  546.92   69.27
   0  -8   2  565.54   68.51
   0   8  -3  300.36   37.90
   0  -8  -3  346.67   57.91
   0  -8  -3  409.61   47.49
   0  -8  -3  292.44   38.57
   0  -8   3  301.04   37.86
   0  -8   3  277.06   41.69
   0  -8   4 1620.82  200.69
   0   8  -4 1601.57  200.57
   0  -8  -4 1580.67  201.28
   0  -8   4 1648.48  206.14
   0   8  -4 1843.84  206.84
   0  -8  -5   67.49   10.12
   0   8  -5   69.50   15.72
   0   8  -5   48.74    8.93
   0  -8  -5   79.64   12.40
   0  -8  -5   48.15   21.58
   0  -8   5   69.75    9.59
   0   8   5   70.78    9.76
   0   8   5   35.96   23.32
   0  -8   5   69.74   18.45
   0   8   6  238.29   29.00
   0  -8  -6  192.97   43.64
   0   8  -6  209.53   28.36
   0   8   6  203.39   57.72
   0  -8   6  230.79   28.86
   0   8  -6  270.70   36.92
   0  -8  -6  194.50   29.17
   0   8   7  108.98   14.70
   0  -8  -7  177.44   40.99
   0   8  -7  107.46   14.33
   0  -8   7  105.84   14.80
   0   8  -7   55.96   18.76
   0   8   7  188.21   75.22
   0  -8   7   80.00   31.75
   0  -8  -7   98.83   15.15
   0   8   8  270.58   32.60
   0  -8  -8  332.27   57.10
   0  -8  -8  233.52   32.99
   0   8  -8  264.59   32.26
   0   8  -8  170.38   40.46
   0   8   8  157.30   59.13
   0  -8   8  199.98   44.48
   0   8   9  149.10   98.34
   0  -8  -9  243.32   56.04
   0  -8   9   50.58   36.70
   0   8   9  172.14   22.25
   0  -8  -9  175.14   23.19
   0   8  -9  141.68   21.54
   0   8  -9  270.14   57.11
   0   8  10  148.30   18.88
   0  -8 -10  145.09   57.98
   0   8  10   87.33   65.99
   0   8 -10  103.04   19.26
   0  -8 -10  110.52   20.56
   0  -8  10  124.14   42.78
   0   8 -11   88.30   63.80
   0  -8 -11   16.72   31.96
   0  -8  11  -25.11   37.67
   0  -8 -11   22.46    7.36
   0   8 -11   16.22    6.35
   0   8  11   -7.93   69.75
  -1  -8   0   -0.63    1.51
   1   8   0    1.16    3.78
  -1   8   0   -0.34    3.54
   1  -8   0   -0.15    1.81
  -1  -8   0    5.06    4.62
   1  -8   0   -0.05    3.43
   1   8   0   -0.22    2.03
  -1   8   0    0.30    1.64
  -1  -8  -1    1.53    2.63
  -1  -8  -1    0.98    2.28
   1   8  -1   -0.84    5.12
   1   8  -1    0.76    1.93
   1  -8   1    0.02    3.24
   1  -8   1    0.42    1.48
  -1   8   1    0.90    3.76
  -1  -8  -1  -15.85    8.52
  -1  -8   1   -1.15    1.37
  -1   8  -1   -2.51    1.63
  -1  -8   1    0.02    2.85
   1  -8  -1    2.48    3.11
   1  -8  -1   -0.24    3.80
   1   8   1   -0.74    6.31
  -1   8  -1   -1.08    3.27
   1   8   1    0.18    1.86
   1  -8   2    1.41    1.55
  -1  -8  -2   -1.90    5.67
   1   8  -2    1.07    4.15
  -1  -8  -2   -1.86    2.93
  -1  -8  -2   -1.81    1.59
   1   8  -2   -0.60    1.41
   1  -8   2   -6.02    3.79
  -1  -8   2    1.82    3.89
  -1   8  -2   -1.66    3.79
   1  -8  -2    0.98   11.57
  -1  -8   2    0.22    1.42
  -1   8  -2    0.59    1.82
   1  -8  -2    7.76    5.64
  -1  -8  -3    3.87   12.55
  -1  -8  -3    0.90    2.79
  -1  -8  -3    5.81    5.06
  -1  -8  -3   -7.60   13.28
   1   8  -3    1.61    1.69
   1  -8   3   -1.17    1.47
   1   8  -3    1.39    6.42
   1  -8   3    3.73    5.38
   1  -8  -3   -4.35    5.23
  -1  -8   3    5.08    7.02
  -1   8  -3   -1.60    1.47
   1   8   3   -3.05    1.78
  -1  -8   3   -2.06    1.46
   1  -8  -3    0.87    1.90
  -1   8  -3    3.51    4.68
   1  -8  -3   -5.43   11.06
   1   8  -4   -5.02    4.55
   1  -8   4   -5.04    5.79
   1  -8   4   -1.40    1.50
  -1  -8  -4  -34.86   17.22
  -1  -8  -4    3.29    3.07
  -1  -8  -4    0.60    3.01
  -1   8   4   24.47   24.57
   1   8  -4    2.74    2.10
   1  -8  -4  -22.42   12.04
   1   8   4    4.37    3.44
  -1  -8   4   11.69    6.99
  -1  -8   4    2.90    2.24
  -1   8  -4    7.10    5.81
  -1   8  -4    2.04    1.96
  -1  -8  -5   -6.70   17.02
  -1   8   5   32.59   20.07
  -1  -8  -5    3.01    3.32
   1  -8   5    4.57    2.79
   1   8  -5    0.97    2.22
   1   8  -5    1.01    7.36
   1  -8   5   -7.48    8.30
  -1  -8  -5    1.49    3.58
  -1   8  -5    1.09    7.64
   1   8   5   22.67   19.99
   1   8   5   -1.23    2.59
   1  -8  -5    0.24    2.56
  -1  -8   5    2.19   16.07
  -1  -8   5    0.64    2.07
   1  -8  -5  -18.36   13.17
  -1   8  -5   -2.12    1.72
   1  -8   6   -0.03    1.92
  -1  -8  -6    7.55   26.61
   1   8  -6    7.59   12.12
  -1  -8  -6    0.31    2.68
  -1  -8  -6    2.13    3.70
   1  -8   6    9.83   11.96
  -1   8   6   18.05   31.08
   1   8  -6    0.75    2.07
  -1  -8   6    3.21   14.46
   1  -8  -6  -20.22   15.96
   1   8   6   22.37   21.82
  -1   8  -6    7.71    8.56
   1   8   6   -0.69    2.63
  -1  -8   6    0.22    2.78
  -1   8  -6    2.27    2.38
   1  -8  -6    4.03    3.80
  -1  -8  -7    4.26    3.87
   1   8  -7    4.15   11.50
   1   8  -7    2.37    2.72
  -1  -8  -7    8.89   24.70
   1  -8   7  -22.64   22.06
   1  -8   7    3.13    3.52
  -1   8   7   12.66   27.91
  -1   8  -7    5.94    3.34
   1  -8  -7   -1.06    3.28
   1  -8  -7    0.05   20.69
   1   8   7   34.72   45.49
   1   8   7    2.28    4.03
  -1  -8   7    0.35    3.08
  -1  -8   7    1.32   13.87
  -1   8  -7  -12.53   10.41
  -1   8   8  -12.18   35.99
  -1  -8  -8   43.90   44.26
  -1  -8  -8    2.05    4.15
   1   8  -8    3.10    3.20
   1   8  -8   -6.93   12.49
   1  -8   8   16.12   21.69
  -1   8  -8    6.47    3.64
   1  -8  -8  -21.41   15.55
   1   8   8   -5.04    3.15
  -1   8  -8    2.96   12.14
  -1  -8   8   -8.04   18.72
   1  -8  -8   -0.70    3.55
   1   8   8  -83.95   33.02
  -1  -8   8    6.07    3.71
   1  -8   9   -7.86   18.45
  -1  -8  -9   -7.91   30.57
  -1   8   9   35.14   44.76
   1   8  -9  -21.65   18.30
  -1  -8  -9   -3.07    3.53
   1   8  -9    6.87    4.12
  -1  -8   9   13.71   24.75
  -1   8  -9   -7.11   34.41
   1   8   9    5.51    6.34
  -1   8  -9    3.57    3.61
   1  -8  -9   20.30   21.21
   1   8   9  -18.27   43.59
   1  -8  -9    4.89    4.85
  -1   8  10  104.66   81.82
   1   8 -10   21.34   24.77
   1   8 -10    2.50    3.81
  -1  -8 -10   17.51   34.70
   1  -8  10   18.73   37.05
  -1  -8 -10    0.78    4.32
  -1   8 -10    3.06    3.86
  -1  -8  10   25.97   29.57
  -1   8 -10  -10.69   28.05
   1   8  10   -0.02    5.20
   1  -8 -10    3.18   22.80
   1  -8 -10   -0.01    3.82
   1   8  10  -43.22   79.99
   1   8 -11   -2.42   28.64
   1  -8  11   -0.86   43.71
  -1  -8 -11    7.01    4.98
   1   8 -11    3.27    4.05
  -1   8  11  -56.14   65.95
  -1  -8 -11    0.50   32.93
   1  -8 -11   -2.77    3.64
   1  -8 -11  -11.39   41.68
  -1   8 -11   10.81    4.45
  -1   8 -11  -14.72   26.33
  -1  -8  11   30.37   40.35
   1   8  11  -41.41   72.35
   1   8  11   -2.58    4.86
  -2   8   0  535.24   67.54
   2  -8   0  589.44   67.36
  -2  -8   0  503.62   66.51
   2   8   0  472.18   65.44
  -2  -8   0  557.83   65.13
  -2  -8   0  539.92   68.42
   2   8   0  499.23   68.27
   2  -8   1  258.58   34.64
   2   8  -1  264.44   32.87
  -2   8   1  230.14   35.11
  -2  -8  -1  304.58   39.91
   2   8  -1  277.08   36.25
   2  -8   1  261.91   32.65
  -2  -8  -1  239.79   33.14
  -2  -8  -1  282.89   34.51
  -2  -8   1  277.86   32.54
  -2  -8   1  276.43   35.93
   2   8   1  284.37   38.46
  -2   8  -1  234.95   34.66
   2  -8  -1  217.64   34.92
  -2  -8  -2 1538.49  208.24
   2  -8   2 1650.55  209.75
  -2  -8  -2 1757.38  208.89
  -2  -8  -2 1872.94  212.90
  -2   8  -2 1649.82  209.24
   2   8   2 1716.84  208.56
  -2   8  -2 1592.10  207.01
   2  -8  -2 1879.21  211.10
  -2  -8   2 1850.08  210.79
   2  -8  -2 1498.27  215.60
  -2  -8  -3  141.26   25.97
   2  -8   3   95.82   19.63
   2  -8   3  123.96   15.36
  -2  -8  -3  143.55   21.92
  -2  -8  -3  100.57   16.97
   2   8  -3  185.60   27.47
  -2  -8  -3   84.34   31.44
   2   8  -3  106.63   15.32
   2  -8  -3  109.12   20.75
   2   8   3  102.68   16.70
  -2  -8   3  157.97   24.20
  -2   8  -3  125.64   15.49
   2  -8  -3  106.81   27.15
  -2   8  -3  135.05   21.85
  -2  -8   3  123.61   15.46
  -2  -8  -4  659.36   91.97
  -2  -8  -4 1001.35  118.38
   2  -8   4  781.83   97.54
   2   8  -4  653.26   94.90
   2   8  -4  751.82   91.38
   2  -8   4  762.75   91.38
  -2  -8  -4  774.68   93.70
   2   8   4  735.50   93.02
  -2   8  -4  743.83   91.26
   2  -8  -4  769.16  102.91
  -2   8  -4  746.88   95.47
  -2  -8   4  756.71   91.49
  -2  -8  -5  208.69   29.23
  -2  -8  -5  219.49   30.67
  -2   8   5  114.87   42.96
   2   8  -5  233.11   28.60
   2   8  -5  188.61   33.38
   2  -8   5  187.99   38.42
   2  -8   5  200.97   28.44
  -2  -8  -5  233.88   48.90
  -2  -8   5  286.28   38.23
   2   8   5  139.27   44.76
   2  -8  -5  324.98   52.29
  -2   8  -5  232.47   28.41
   2  -8  -5  259.91   29.70
  -2  -8   5  239.16   28.81
  -2   8  -5  236.72   34.42
   2   8   5  214.88   30.13
   2   8  -6  477.78   58.46
   2   8  -6  447.82   64.52
  -2  -8  -6  440.14   76.70
  -2  -8  -6  479.98   59.38
  -2  -8  -6  503.29   61.35
   2  -8   6  448.58   68.45
  -2   8   6  302.71   74.95
   2  -8   6  469.60   58.64
  -2  -8   6  438.12   67.78
  -2  -8   6  500.15   58.90
  -2   8  -6  553.89   66.42
   2  -8  -6  466.99   59.36
   2   8   6  455.47   60.09
   2  -8  -6  435.41   71.74
   2   8   6  318.90   77.53
  -2   8  -6  463.17   58.19
   2  -8   7  337.40   63.26
   2   8  -7  153.74   32.82
  -2  -8  -7  233.73   56.91
  -2  -8  -7  216.10   30.19
   2  -8   7  204.47   27.72
  -2  -8  -7  219.31   28.40
   2   8  -7  216.47   27.49
  -2   8   7  190.61   59.09
  -2  -8   7  211.98   27.84
  -2   8  -7  183.32   34.52
  -2   8  -7  221.16   27.24
   2  -8  -7  199.88   40.46
   2   8   7  114.09   50.32
   2  -8  -7  217.82   28.53
   2   8   7  215.44   29.44
  -2  -8   7  172.72   37.45
  -2  -8  -8  202.83   27.73
  -2  -8  -8  179.05   44.11
   2   8  -8  197.09   36.67
   2   8  -8  206.52   26.90
   2  -8   8  144.63   42.41
  -2   8   8  169.40   52.85
   2  -8  -8  196.78   27.74
  -2   8  -8  185.98   26.49
   2  -8  -8  266.03   54.68
   2   8   8  228.16   29.12
  -2  -8   8  223.72   27.78
   2   8   8   90.67   52.38
  -2  -8   8  212.08   65.45
  -2   8  -8  244.57   43.71
  -2  -8  -9   23.23   40.80
   2   8  -9   43.43    8.74
  -2  -8  -9   38.53    9.69
   2   8  -9   34.75   22.91
  -2   8   9   -0.90   42.13
   2  -8   9   16.66   20.54
  -2   8  -9   44.89    9.10
  -2   8  -9   56.87   25.29
   2  -8  -9   84.30   33.71
   2   8   9   55.10   12.90
   2  -8  -9   30.33    9.15
   2   8   9   81.51   57.07
  -2  -8   9   76.71   44.94
   2  -8  10   67.58   53.32
   2   8 -10   68.03   34.77
  -2   8  10   66.40   66.38
  -2  -8 -10    0.88   38.49
  -2  -8 -10   79.06   14.40
   2   8 -10   82.05   13.69
   2  -8 -10   52.25   13.27
   2   8  10   48.90   66.59
  -2   8 -10   14.19   23.58
  -2   8 -10   84.95   13.51
   2  -8 -10   15.70   24.49
   2   8  10  117.62   19.44
  -2  -8  10   43.47   42.43
  -2  -8 -11   57.34   55.43
  -2   8  11  -17.28   64.18
   2   8 -11  -34.87   25.87
  -2   8 -11  -14.08   29.81
   2   8  11   44.53   13.23
   2   8  11   46.36   77.95
   2  -8 -11   -3.56   38.67
  -2  -8  11  -48.06   40.96
   3  -8   0    5.08    3.70
   3   8   0   -4.40    4.81
  -3  -8   0    4.39    3.40
   3  -8   0   -0.52    1.76
   3   8   0    1.76    2.20
  -3   8   0   -0.65    3.52
  -3  -8   0   -1.20    5.44
  -3  -8   0    1.00    1.60
   3   8  -1   -1.22    4.59
  -3  -8  -1    0.23    3.11
   3  -8   1    1.08    1.56
  -3  -8  -1    1.48    1.98
  -3  -8  -1    3.56    5.48
   3  -8   1   -5.18    2.80
   3   8   1    3.42    5.71
  -3   8  -1   -4.52    3.65
   3   8   1    1.73    2.70
  -3  -8   1   -0.46    2.73
   3  -8  -1    7.73    5.03
   3   8   1   -1.51    2.59
  -3  -8   1   -0.64    4.65
  -3  -8   1   -1.57    1.31
   3  -8   2   -1.75    3.85
   3   8  -2    0.85    1.69
  -3  -8  -2   -1.14    6.40
  -3  -8  -2    1.30    2.02
   3   8  -2   -5.49    4.57
  -3  -8  -2    4.21    3.68
   3  -8   2    1.11    1.46
   3  -8  -2   10.51   12.83
   3   8   2    3.87    2.56
   3  -8  -2    2.92    5.04
  -3  -8   2    8.20    5.76
  -3  -8   2   -0.09    1.27
  -3   8  -2    0.17    1.50
  -3   8  -2    9.04    4.34
   3   8   2    2.01    3.15
   3  -8   3    3.23    6.29
   3   8  -3    0.70    2.02
  -3  -8  -3   -8.05   16.91
  -3  -8  -3   -1.14    2.08
  -3  -8  -3    1.55    3.69
  -3  -8  -3   -4.81    8.06
   3   8  -3   -8.04    5.09
   3  -8   3    3.14    2.04
  -3  -8  -3    2.93    4.15
   3   8   3    0.11    2.89
   3  -8  -3    2.01    5.47
  -3   8  -3   -5.07    4.15
  -3  -8   3  -11.00    4.65
  -3  -8   3   -1.63    1.58
  -3   8  -3   -0.71    1.84
   3  -8  -3   16.16   12.81
  -3  -8  -4   -0.63    2.18
   3  -8   4   -0.51    1.67
  -3  -8  -4    3.74   18.20
  -3  -8  -4   -3.91    2.41
   3   8  -4    1.97    1.97
  -3  -8  -4   -0.58    4.00
   3  -8   4   -2.66    7.06
   3   8  -4   -0.50    6.20
  -3  -8  -4   12.18   10.16
   3  -8  -4   10.46   12.82
  -3  -8   4   -6.10    6.74
  -3  -8   4   -0.24    1.77
   3   8   4   -1.29    2.58
  -3   8  -4   -6.26    5.27
  -3   8  -4    1.53    1.85
   3  -8   5   -0.34   10.17
   3  -8   5   -0.56    2.09
  -3  -8  -5  -15.97   19.05
  -3  -8  -5    0.45    3.89
   3   8  -5   -8.31    7.56
   3   8  -5    2.76    2.32
  -3  -8  -5   -4.28    4.00
  -3  -8  -5    5.13    3.55
  -3   8  -5    4.76    7.73
   3  -8  -5    3.20   13.72
   3   8   5    4.82    4.56
  -3  -8   5   -1.83   10.08
  -3  -8   5    1.75    2.59
   3  -8  -5    3.33    3.36
  -3   8  -5    1.98    2.19
   3   8  -6   -7.08    8.00
  -3   8   6   15.70   26.35
   3  -8   6   -1.98    2.26
   3  -8   6   -8.91   11.59
  -3  -8  -6   -7.12   22.07
   3   8  -6    3.14    3.04
  -3  -8  -6    3.13    6.16
  -3  -8  -6   -0.83    3.01
   3  -8  -6    4.66    3.62
   3   8   6   -7.89   29.95
  -3  -8   6   -5.63   10.74
  -3  -8   6    2.28    2.80
   3  -8  -6    0.65   13.86
  -3   8  -6  -13.27    9.26
   3   8   6    3.41    4.81
  -3   8  -6    3.26    2.84
  -3  -8  -7    1.77    4.32
  -3   8   7  -39.99   26.92
   3  -8   7   -1.03    3.16
   3   8  -7    6.59   12.22
   3   8  -7    4.90    3.51
  -3  -8  -7    6.23    6.19
   3  -8   7    7.13   17.15
  -3  -8  -7  -33.35   24.20
  -3  -8   7   -7.52   14.26
   3   8   7   -4.27    4.14
  -3   8  -7    4.82    3.33
  -3  -8   7    5.08    3.96
  -3   8  -7   18.84   12.12
   3  -8  -7   11.76   20.22
   3  -8  -7    0.52    3.73
   3   8   7   10.48   39.73
  -3   8   8   24.31   38.39
   3  -8   8    1.01    7.24
  -3  -8  -8    7.80   46.78
   3   8  -8    7.35   13.43
   3  -8   8   30.60   20.07
   3   8  -8   -0.09    2.68
  -3  -8  -8    1.05    3.38
   3  -8  -8   -9.38   20.50
  -3   8  -8    4.76   14.62
  -3   8  -8    5.25    3.18
   3   8   8  -78.65   53.30
  -3  -8   8   -0.09    3.79
   3   8   8    4.90    5.91
  -3  -8   8   16.66   21.54
   3  -8  -8   -1.22    3.13
   3   8  -9   29.56   19.42
   3  -8   9   -2.76   32.85
  -3   8   9  -14.53   40.55
  -3  -8  -9   -0.59    3.35
   3   8  -9    0.44    3.41
  -3  -8  -9  -40.11   31.88
  -3   8  -9   -0.66    2.91
  -3  -8   9   -0.61   24.52
  -3   8  -9  -20.92   17.90
   3   8   9    2.42    6.23
   3  -8  -9   27.33   19.44
   3   8   9  -41.82   49.51
   3  -8  -9   -1.45    2.74
  -3  -8 -10   -1.53    3.86
   3   8 -10    2.93    3.96
  -3  -8 -10   27.38   45.82
   3   8 -10  -13.99   24.07
  -3   8  10   11.86   62.67
  -3   8 -10    5.27    3.92
  -3   8 -10   27.03   23.81
   3  -8 -10    8.88    4.34
   3   8  10   -2.19    5.96
   3   8  10  -46.65   61.58
   3  -8 -10  -17.00   34.66
  -3  -8  10    0.95   33.96
   3   8 -11   12.62   28.14
   3   8 -11   -1.25    3.54
  -3  -8 -11    3.72    5.04
  -3  -8 -11  -59.47   42.57
   3  -8  11   41.38   49.82
  -3   8  11 -121.63   66.88
  -3   8 -11   21.85   43.54
   3  -8 -11  -13.78   37.52
  -3  -8  11  -23.70   39.31
   3  -8 -11    0.30    4.32
  -3   8 -11    4.14    4.30
  -4  -8   0 1538.09  190.00
   4   8   0 1431.36  190.02
   4   8   0 1533.12  186.91
  -4  -8   0 1571.76  189.15
  -4   8   0 1469.37  187.92
   4  -8   0 1599.02  187.59
   4   8  -1  565.44   68.30
  -4  -8  -1  585.75   68.08
   4  -8   1  564.25   69.99
  -4  -8  -1  569.21   71.19
   4  -8   1  554.72   67.98
   4   8  -1  490.09   71.65
  -4  -8   1  578.72   67.80
   4  -8  -1  502.04   74.59
  -4   8  -1  564.26   70.07
   4   8   1  494.49   72.06
  -4  -8   1  555.31   71.77
   4  -8  -1  551.93   69.98
   4  -8  -1  585.61   70.12
  -4  -8   1  535.12   70.51
   4   8   1  492.91   70.11
   4  -8   2  801.95   92.89
   4   8  -2  740.61   93.13
   4   8  -2  756.83   96.90
   4  -8   2  739.03   96.09
  -4  -8  -2  839.43   93.81
  -4  -8  -2  681.26   93.39
  -4  -8  -2  726.69   96.13
   4   8   2  738.24   95.66
  -4   8  -2  727.74   95.09
   4  -8  -2  766.94   94.34
  -4  -8   2  741.65   95.55
   4  -8  -2  771.74   95.97
   4  -8  -2  778.21  100.66
  -4  -8   2  786.99   92.95
   4  -8   3  173.84   24.01
  -4  -8  -3  210.07   28.03
  -4  -8  -3  184.60   24.81
   4   8  -3  193.21   24.37
   4   8  -3  175.66   28.37
  -4  -8  -3  174.98   32.21
  -4  -8  -3  206.99   25.95
  -4  -8  -3  154.43   41.89
   4  -8   3  182.11   29.47
  -4  -8   3  208.55   24.37
   4  -8  -3  214.53   29.04
  -4  -8   3  220.28   27.28
  -4   8  -3  166.70   24.01
   4   8   3  163.86   26.42
  -4   8  -3  230.32   28.04
   4  -8  -3  294.49   42.40
  -4  -8  -4  321.67   60.64
  -4  -8  -4  273.68   40.01
  -4  -8  -4  302.99   41.64
  -4  -8  -4  289.34   38.45
   4   8  -4  343.41   38.15
   4   8  -4  287.77   42.54
   4  -8   4  275.14   44.85
   4  -8   4  299.78   37.81
  -4  -8   4  306.77   38.02
  -4   8  -4  299.51   37.73
   4   8   4  280.27   40.47
  -4  -8   4  320.23   44.95
  -4   8  -4  283.29   41.88
   4  -8  -4  356.69   48.85
  -4  -8  -5  176.70   25.94
  -4  -8  -5  185.21   23.25
  -4   8   5  137.23   41.46
  -4  -8  -5  173.31   41.75
   4  -8   5  180.02   22.60
   4   8  -5  199.59   29.42
   4   8  -5  161.92   22.44
   4  -8   5  180.45   34.80
  -4  -8  -5  144.37   25.60
  -4   8  -5  187.38   31.86
  -4  -8   5  128.47   30.10
   4  -8  -5  194.07   37.98
   4  -8  -5  171.03   23.17
   4   8   5  178.66   25.42
  -4  -8   5  171.13   22.68
  -4   8  -5  178.82   22.27
  -4  -8  -6  278.20   40.77
  -4   8   6  311.27   67.99
  -4  -8  -6  279.51   37.17
   4  -8   6  308.94   36.87
   4  -8   6  282.81   50.94
  -4  -8  -6  243.62   40.04
   4   8  -6  278.70   36.61
  -4  -8  -6  336.59   59.36
   4   8  -6  256.90   42.84
   4  -8   6  363.39   43.22
  -4  -8   6  291.09   36.92
   4  -8  -6  375.48   57.14
  -4   8  -6  204.01   42.56
   4  -8  -6  277.29   37.36
  -4   8  -6  290.23   36.25
   4   8   6  309.94   39.84
  -4  -8   6  288.65   51.92
   4  -8   7   52.40   15.91
  -4  -8  -7   63.88   31.69
  -4  -8  -7   28.52   13.38
  -4  -8  -7   34.98   12.98
   4  -8   7   28.67   18.48
   4   8  -7   34.64   15.30
  -4  -8  -7   65.76   11.49
   4   8  -7   67.19   10.53
   4  -8   7   61.63   10.81
  -4   8  -7   42.96   17.88
   4  -8  -7   58.66   11.35
  -4   8  -7   51.69    9.14
   4   8   7   62.08   13.93
   4  -8  -7   49.77   22.00
  -4  -8   7   57.23   10.22
  -4  -8   7   26.70   17.32
  -4   8   8   79.45   45.77
   4  -8   8  191.68   46.42
   4   8  -8   79.25   26.37
   4   8  -8  113.50   15.40
  -4  -8  -8  110.09   15.84
  -4  -8  -8   22.15   33.27
   4  -8  -8  108.82   16.40
   4   8   8  132.44   99.83
  -4  -8   8  115.88   16.02
  -4   8  -8  111.60   27.77
  -4   8  -8   99.83   14.76
   4   8   8  106.89   21.83
  -4   8   9   31.83   51.12
   4   8  -9   76.00   13.10
  -4  -8  -9   75.54   13.70
  -4  -8  -9   24.34   39.69
   4   8  -9   31.33   24.85
  -4   8  -9   90.77   29.29
  -4   8  -9   75.21   12.40
  -4  -8   9   49.60   32.93
   4  -8  -9   47.36   27.03
   4   8   9   88.57   65.75
   4   8   9   92.44   20.04
   4  -8  -9   70.65   13.95
  -4  -8 -10  103.80   17.91
   4  -8  10   90.25   55.93
   4   8 -10   49.91   24.70
  -4  -8 -10  117.33   59.33
   4   8 -10  123.18   18.68
  -4   8  10   -6.27   55.68
  -4   8 -10  107.33   15.27
   4  -8 -10  120.92   41.76
  -4   8 -10  104.96   32.14
  -4  -8  10   -2.99   42.71
   4  -8 -10  136.87   20.43
   5  -8   0    0.03    3.03
  -5  -8   0    4.94    7.17
  -5   8   0    4.55    4.51
   5   8   0   -2.18    6.12
   5   8   0   -2.55    2.44
  -5  -8   0    1.66    3.97
  -5  -8   0   -1.51    1.01
   5  -8   0    2.57    1.98
   5   8   0   -0.23    2.10
   5  -8   0   -2.47    3.32
  -5  -8  -1   -4.47    7.01
   5  -8   1    0.23    4.28
   5   8  -1   -0.36    1.81
   5  -8   1    2.10    5.46
  -5  -8  -1    2.67    1.69
   5  -8   1    2.15    1.40
   5   8  -1   -8.47    6.75
  -5  -8  -1   -0.06    3.77
  -5  -8  -1    1.02    2.12
  -5  -8   1    0.78    1.50
   5  -8  -1   -4.19    4.12
   5  -8  -1   -2.53    2.77
  -5  -8   1   -6.12    5.29
   5   8   1    1.03    2.43
   5  -8  -1   -6.55    9.79
  -5   8  -1   -6.54    4.13
   5   8   1   -5.17    6.34
  -5  -8   1    2.89    4.46
   5   8   1   -3.81    1.80
   5   8  -2    0.85    7.65
   5  -8   2   -2.92    2.87
  -5  -8  -2    4.61   23.04
  -5  -8  -2    3.63    2.09
   5  -8   2    4.20    1.79
  -5  -8  -2    4.31    5.11
   5   8  -2    4.31    2.34
  -5  -8  -2    3.60    8.36
   5  -8   2    0.95    6.31
  -5  -8  -2    3.91    2.44
  -5  -8   2    0.41    3.33
  -5  -8   2    0.97    1.62
   5   8   2    4.14    3.17
  -5  -8   2   -0.67    6.02
   5  -8  -2   -0.46    2.54
   5   8   2    2.48    3.93
   5  -8  -2    3.16    9.54
  -5   8  -2    9.50    4.88
   5  -8  -2   -6.55    5.44
  -5  -8  -3    0.80    2.20
  -5  -8  -3   47.52   25.87
   5  -8   3   -2.46    3.08
  -5  -8  -3   14.93   10.00
  -5  -8  -3    6.54    2.83
   5  -8   3    4.34    8.98
   5   8  -3  -17.20    6.21
   5  -8   3    2.54    1.68
   5   8  -3    0.56    1.96
  -5  -8  -3   -0.21    5.72
   5   8   3    2.41    3.69
  -5  -8   3    1.19    1.79
   5  -8  -3   -2.33    6.71
   5  -8  -3   -5.98    9.98
  -5  -8   3    8.50    5.13
  -5   8  -3   -2.05    5.72
  -5  -8   3    8.37    8.20
   5  -8  -3   -1.10    2.18
  -5  -8  -4    4.10    6.20
   5  -8   4   -0.37    1.75
   5   8  -4    1.72    2.20
  -5  -8  -4    6.88   23.05
   5   8  -4    3.05    8.35
  -5  -8  -4    8.62    3.95
   5  -8   4   -3.59    3.68
   5  -8   4   -2.53   10.61
  -5  -8  -4    1.59    2.51
  -5   8  -4    2.39    1.68
  -5  -8   4    2.62   10.24
  -5   8  -4    2.61    7.02
  -5  -8   4    2.67    2.33
   5   8   4    1.47    4.39
   5  -8  -4    7.76   11.87
  -5  -8   4    2.77    4.10
   5  -8   5  -15.65   13.83
  -5  -8  -5  -31.81   21.75
  -5  -8  -5  -38.37   13.91
  -5  -8  -5   -0.45    5.91
   5   8  -5    3.58    2.66
  -5  -8  -5   11.26    5.15
   5  -8   5    2.66    5.05
   5  -8   5    6.41    3.35
  -5   8   5  -27.08   22.52
   5   8  -5   18.32   11.28
  -5  -8  -5    6.77    3.89
   5   8   5    4.10    5.92
   5  -8  -5   -8.61   12.25
  -5   8  -5   10.78    9.02
  -5  -8   5    1.02    2.83
  -5   8  -5    4.59    2.72
  -5  -8   5    3.07    4.52
   5  -8  -5    5.83    3.88
  -5  -8  -6    0.00    2.89
  -5   8   6   33.49   30.16
  -5  -8  -6    6.94    6.02
  -5  -8  -6  -29.46   22.17
   5  -8   6    2.90    5.64
  -5  -8  -6    2.22   14.32
   5   8  -6   12.78   11.53
   5  -8   6  -12.41   15.44
   5   8  -6    8.62    3.59
  -5  -8  -6    3.89    6.52
   5  -8   6    4.22    3.47
  -5  -8   6   16.79   15.70
   5  -8  -6  -11.15   13.89
  -5  -8   6    1.42    3.06
  -5  -8   6    0.01    2.51
  -5   8  -6    1.98    2.39
   5   8   6   -0.08    4.57
  -5   8  -6    5.43   10.35
   5  -8  -6    1.07    3.45
  -5  -8  -7    3.09    5.46
  -5  -8  -7    4.49    3.64
   5  -8   7    7.49    3.74
  -5  -8  -7    1.66    6.48
  -5  -8  -7   48.94   31.20
  -5   8   7   -5.27   34.85
   5  -8   7  -11.44   22.80
   5   8  -7   -1.13   13.22
   5   8  -7    1.96    3.10
  -5   8  -7   -4.79    2.03
  -5  -8   7   -0.86    3.02
  -5  -8   7   -2.75   18.03
   5   8   7   -2.83    4.89
  -5  -8   7    7.19    3.58
   5  -8  -7   -3.20    2.74
   5  -8  -7  -17.38   14.72
  -5   8  -7   33.89   15.35
   5   8  -8    8.62    4.40
  -5  -8  -8    9.83    9.64
  -5   8   8  -13.08   39.37
  -5  -8  -8   -4.57   27.77
   5   8  -8   -6.17   14.49
  -5  -8  -8    8.25    8.71
  -5  -8  -8    2.40    3.74
  -5   8  -8    1.39    2.61
  -5   8  -8    0.53   16.84
   5  -8  -8   -0.28    4.08
  -5  -8   8    6.15   24.85
   5  -8  -8  -19.98   17.46
  -5  -8   8    3.78    4.47
   5   8  -9    8.99    4.84
   5   8  -9   -4.77   21.31
  -5  -8  -9   -0.03    3.61
  -5  -8  -9  -34.93   33.80
   5  -8   9    2.07   36.28
   5  -8  -9  -35.01   19.99
  -5   8  -9   15.83   21.42
   5  -8  -9    9.04    5.53
  -5   8  -9    8.24    4.08
  -5  -8   9   35.04   26.39
  -5   8  10   57.48   64.23
   5   8 -10    1.62    3.73
  -5  -8 -10    1.20    3.83
   5   8 -10   23.25   21.67
  -5  -8 -10  -74.05   39.02
   5  -8  10   55.38   49.00
  -5   8 -10    2.04    3.48
  -5   8 -10  -18.97   23.76
   5  -8 -10    3.72    5.01
   5  -8 -10   -8.82   26.67
  -5  -8  10   17.83   33.10
  -6  -8   0  237.11   28.38
   6   8   0  190.80   34.21
  -6  -8   0  242.17   33.30
   6   8   0  224.92   32.12
  -6  -8   0  251.89   33.75
   6  -8   0  251.32   32.66
  -6  -8   0  215.81   28.59
   6   8   0  229.14   29.83
  -6  -8  -1  105.86   12.97
  -6  -8  -1  111.22   20.69
   6   8  -1  130.49   23.42
   6  -8   1  127.88   21.09
   6  -8   1  106.63   13.29
   6   8  -1  101.04   13.97
  -6  -8  -1   97.94   13.22
  -6  -8  -1  117.68   22.23
   6   8   1  128.33   17.51
  -6  -8   1   91.84   12.93
   6   8   1   95.65   16.75
  -6  -8   1  114.09   21.24
   6  -8  -1   96.18   15.90
  -6  -8   1   97.61   19.74
  -6   8  -1   90.24   15.70
  -6  -8  -2  435.17   81.06
   6   8  -2  424.90   63.52
   6   8  -2  471.77   58.96
  -6  -8  -2  481.77   63.60
   6  -8   2  505.64   58.42
  -6  -8  -2  505.86   65.86
   6  -8   2  462.54   62.39
  -6  -8  -2  508.00   58.40
   6  -8   2  465.77   63.19
  -6  -8  -2  477.16   58.60
   6  -8  -2  453.33   60.73
   6   8   2  440.08   62.13
  -6  -8   2  464.53   62.41
   6  -8  -2  490.48   60.51
  -6  -8   2  466.74   63.61
  -6   8  -2  429.45   60.36
   6  -8  -2  511.00   61.85
  -6  -8   2  469.18   58.34
  -6  -8  -3  300.56   43.64
   6  -8   3  273.38   42.92
  -6  -8  -3  397.68   50.44
   6  -8   3  330.44   38.40
  -6  -8  -3  324.68   38.68
   6   8  -3  300.73   44.28
   6   8  -3  305.80   38.78
  -6  -8  -3  342.47   63.53
   6  -8   3  312.16   44.93
  -6  -8  -3  312.49   38.63
   6  -8  -3  300.48   41.95
   6   8   3  304.47   42.41
   6  -8  -3  313.04   39.86
  -6  -8   3  283.88   38.30
  -6  -8   3  315.12   42.35
  -6  -8   3  346.11   45.32
   6  -8  -3  276.92   43.32
  -6   8  -3  278.92   41.12
  -6  -8  -4  326.95   38.90
   6  -8   4  289.77   43.04
  -6  -8  -4  282.09   43.12
   6   8  -4  293.08   38.15
   6   8  -4  282.64   43.87
  -6  -8  -4  289.13   38.04
  -6  -8  -4  402.10   64.36
   6  -8   4  304.86   37.94
   6  -8   4  359.51   48.43
  -6  -8  -4  414.21   62.19
   6   8   4  292.77   42.09
  -6  -8   4  339.09   46.74
  -6  -8   4  325.02   41.81
  -6   8  -4  265.96   41.59
  -6  -8   4  306.34   37.96
   6  -8  -4  282.76   44.94
   6  -8  -4  284.26   42.53
   6  -8   5   93.93   26.81
   6  -8   5  101.73   23.09
   6  -8   5  125.18   15.09
  -6  -8  -5   46.39   32.40
   6   8  -5  102.64   14.88
   6   8  -5   65.42   21.65
  -6  -8  -5  133.44   24.41
  -6  -8  -5  112.79   18.97
  -6  -8  -5  103.79   29.68
  -6  -8  -5  106.08   14.91
  -6  -8   5  130.33   22.06
   6  -8  -5  131.03   26.68
   6  -8  -5  100.92   15.32
   6   8   5  120.46   21.81
  -6   8  -5  129.44   23.66
  -6  -8   5  104.58   14.79
  -6  -8   5  141.34   30.25
  -6  -8  -6  196.74   45.81
  -6  -8  -6  221.24   35.40
   6  -8   6  124.23   34.72
  -6  -8  -6  191.94   25.04
   6   8  -6  165.77   21.90
  -6  -8  -6  163.78   21.84
   6  -8   6  166.52   21.97
   6   8  -6  116.87   27.79
  -6   8   6  131.09   44.25
  -6   8  -6  253.67   32.39
  -6  -8   6  166.34   21.87
  -6   8  -6  144.22   20.99
   6  -8  -6  158.66   33.68
  -6  -8   6  162.25   24.89
  -6  -8   6  157.82   37.34
   6  -8  -6  175.37   22.62
  -6  -8  -7   51.36   27.32
  -6  -8  -7  105.40   20.77
  -6   8   7   54.37   44.64
   6   8  -7   60.84   21.53
  -6  -8  -7  103.32   14.71
  -6  -8  -7  196.79   48.19
  -6  -8  -7  101.43   25.28
   6   8  -7  106.71   14.87
   6  -8   7  116.67   18.57
   6  -8  -7  107.62   15.54
  -6   8  -7   80.18   22.55
  -6  -8   7  152.91   24.62
  -6   8  -7  100.80   13.96
  -6  -8   7  103.90   14.85
  -6  -8  -8  108.49   26.94
   6   8  -8  111.18   17.00
  -6  -8  -8  113.54   16.86
  -6   8   8   71.94   52.47
   6  -8   8   63.00   39.43
  -6  -8  -8  149.92   27.88
   6   8  -8  169.39   33.86
  -6  -8  -8  130.13   43.12
  -6   8  -8  125.54   16.42
  -6  -8   8  128.32   17.64
   6  -8  -8  131.88   18.08
   6  -8  -8   97.35   30.64
  -6  -8   8   86.29   36.15
  -6  -8   8  129.55   19.70
  -6   8  -8   78.77   27.96
  -6  -8  -9   43.23    8.76
  -6   8   9   92.98   58.53
   6   8  -9   45.55    9.27
  -6  -8  -9  102.43   45.20
   6  -8   9   18.95   48.27
  -6  -8   9   47.76   10.43
  -6   8  -9   10.01   21.70
  -6  -8   9   30.75   10.69
   6  -8  -9    4.39   28.32
  -6  -8   9   -8.86   31.76
  -6   8  -9   40.80    7.93
   6  -8  -9   39.28    9.95
  -7  -8   0   -1.21    4.36
   7  -8   0    1.57    1.59
   7  -8   0    1.44    4.64
  -7  -8   0   -4.58    7.15
   7   8   0   -0.98    3.37
   7   8   0   -3.31    9.21
   7   8   0   -1.50    1.90
  -7  -8  -1   -0.66    7.68
  -7  -8  -1    1.28    4.79
   7  -8   1    4.49    1.69
   7   8  -1    2.60    9.40
   7   8  -1   -0.19    2.46
   7  -8   1   -0.98    4.63
   7   8   1    0.61    3.92
  -7  -8   1   14.48    8.12
   7  -8  -1   -4.38    3.07
  -7  -8   1   -1.37    3.71
   7   8   1    4.24    2.70
  -7  -8  -2    4.83    6.48
   7  -8   2   -0.07    4.52
  -7  -8  -2  -14.92   25.67
   7  -8   2    1.03    1.52
  -7  -8  -2   -2.33    9.91
   7   8  -2    2.24   10.14
   7   8  -2    2.07    2.44
  -7  -8  -2    0.97    0.78
  -7   8  -2   -6.43    5.25
  -7  -8   2   14.92    6.26
   7   8   2    9.30    3.43
   7  -8  -2    4.74    4.09
  -7  -8   2    2.76    7.53
   7   8   2    0.57    4.48
  -7  -8  -3    4.46    7.93
  -7  -8  -3    3.83    1.88
   7  -8   3   -1.60    1.80
   7  -8   3   12.32    7.00
  -7  -8  -3    4.04    1.71
  -7  -8  -3  -29.25   24.83
   7   8  -3    3.53    2.71
  -7  -8  -3    9.40   14.47
   7   8  -3    7.06   11.82
   7  -8   3   -0.99   14.05
  -7  -8   3   -7.00    9.55
   7   8   3    5.11    5.86
  -7  -8   3    9.46    6.68
   7  -8  -3    4.97    3.97
  -7   8  -3   -1.14    6.87
   7  -8  -3    6.88    7.45
   7  -8  -3   -8.14    7.12
   7   8  -4   -4.62   11.38
   7   8  -4    1.07    2.24
   7  -8   4   -1.57    1.60
  -7  -8  -4   35.69   27.32
  -7  -8  -4  -23.64   17.99
   7  -8   4  -20.80   16.25
  -7  -8  -4   -1.75    4.64
  -7  -8  -4    4.75    1.94
  -7  -8  -4   -0.32    1.59
   7  -8   4    4.08    4.96
   7  -8  -4    1.09    2.13
  -7  -8   4    1.16    1.67
  -7   8  -4   -8.85    7.36
   7  -8  -4  -15.85    9.55
  -7  -8   4   -0.48    3.54
  -7  -8   4   -4.59   10.48
   7  -8  -4    4.90    8.99
  -7  -8  -5   -6.15   23.27
   7  -8   5   -0.48    2.60
  -7  -8  -5  -64.04   25.34
  -7  -8  -5    8.66    3.30
   7   8  -5    1.18    2.64
   7   8  -5    7.02   12.55
  -7  -8  -5    4.93    2.68
  -7  -8  -5   -3.11    4.64
  -7   8  -5   16.59   10.28
   7  -8  -5   -7.63   12.20
   7  -8  -5    1.05    2.83
   7  -8  -5  -18.52   10.12
  -7  -8   5    0.15    2.19
  -7  -8   5    6.62    5.65
  -7  -8   5   -1.71   13.14
  -7  -8  -6    2.61    2.66
  -7  -8  -6   15.48   23.46
   7  -8   6    3.54    3.71
  -7  -8  -6    0.09    6.85
   7   8  -6    0.94    2.94
  -7  -8  -6   14.60    4.57
  -7  -8  -6   21.02   30.36
   7   8  -6   -6.66   13.43
   7  -8  -6    5.07    4.06
  -7   8  -6  -16.61   11.15
  -7  -8   6    4.93    4.78
  -7  -8   6   -2.10    2.51
   7  -8  -6  -16.43   14.08
  -7  -8   6    9.99   16.99
  -7   8   7    4.90   43.10
   7  -8   7   46.20   34.72
  -7  -8  -7   17.65   23.94
  -7  -8  -7  -10.93   32.55
  -7  -8  -7   -0.63    2.54
  -7  -8  -7   11.49    8.64
  -7  -8  -7    9.12    4.69
   7   8  -7    4.62   17.85
   7   8  -7    2.58    3.75
  -7   8  -7  -11.50   16.02
  -7  -8   7    1.88   20.86
  -7  -8   7    8.56    6.45
  -7  -8   7   -1.14    3.05
   7  -8  -7    6.86    4.61
   7  -8  -7   -0.90   17.92
  -7   8   8   61.32   52.84
   7   8  -8  -14.67   17.63
  -7  -8  -8    3.57   37.25
   7   8  -8   -0.03    3.16
   7  -8   8  -19.98   42.17
  -7  -8  -8    5.26    7.33
  -7  -8  -8   13.33   10.19
  -7  -8  -8    5.77    3.49
  -7  -8   8   -0.20    3.88
   7  -8  -8   -0.39    3.10
  -7   8  -8  -16.02   18.69
  -7  -8   8  -38.30   31.38
  -7  -8   8   -1.05    3.67
  -7   8  -8    3.59    3.00
   7  -8  -8  -61.06   18.69
  -7  -8  -9  -41.43   33.04
  -7  -8  -9    2.01    2.98
  -7   8   9   -7.61   62.47
  -7  -8  -9  -49.15   42.72
   7   8  -9   47.08   23.73
   7   8  -9    4.09    4.52
  -7  -8  -9    9.53    8.82
  -7  -8   9    1.76    3.95
  -7  -8   9   -3.01   39.30
  -7   8  -9    2.99    2.53
   7  -8  -9    7.68   28.82
  -7  -8   9   -1.04    4.81
   7  -8  -9    1.97    4.31
   8  -8   0  234.58   30.02
   8   8   0  204.33   26.08
  -8  -8   0  252.70   32.09
   8   8   0  218.36   29.54
  -8  -8   0  219.96   30.63
   8  -8   0  158.64   24.11
   8   8  -1  120.10   16.66
  -8  -8  -1  101.84   21.81
   8   8  -1  100.81   23.62
  -8  -8  -1  152.65   29.61
   8  -8   1  134.91   23.79
  -8  -8  -1   87.02   38.95
   8  -8   1  126.76   15.26
   8  -8  -1  118.76   19.27
   8   8   1  103.21   17.24
  -8  -8   1  107.18   21.87
  -8  -8   1  133.71   25.61
   8   8   1  147.17   28.07
   8  -8   2  218.01   26.54
   8   8  -2  222.55   27.60
  -8  -8  -2  190.59   32.67
  -8  -8  -2  122.44   45.97
   8   8  -2  177.34   34.73
  -8  -8  -2  185.35   35.76
   8  -8   2  209.98   32.59
   8  -8  -2  225.08   30.11
  -8  -8   2  228.91   36.80
  -8  -8   2  226.99   32.65
  -8  -8  -3   98.05   22.46
   8   8  -3   61.71    9.94
   8   8  -3   73.11   20.38
   8  -8   3   30.11   22.37
  -8  -8  -3   67.29   19.19
  -8  -8  -3   50.83   32.37
   8  -8   3   70.30    9.42
  -8  -8   3  107.94   23.51
  -8  -8   3   80.15   17.22
   8  -8  -3   83.31   15.38
  -8   8  -3   61.06   13.30
   8  -8   4  116.22   14.28
   8   8  -4   83.48   25.95
   8  -8   4   30.41   29.86
   8   8  -4   94.59   14.43
  -8  -8  -4   73.23   23.50
  -8  -8  -4   97.90   38.31
  -8  -8  -4  102.85   27.31
   8  -8  -4  134.08   20.21
  -8  -8   4  130.81   23.90
   8  -8  -4  130.67   20.42
   8  -8  -4  110.64   15.74
   8  -8  -4  100.04   14.53
  -8  -8   4  107.79   26.11
  -8   8  -4   96.95   19.12
  -8  -8  -5   70.18   35.02
  -8  -8  -5   92.74   11.78
  -8  -8  -5   82.06   31.03
  -8  -8  -5   87.90   11.64
  -8  -8  -5  122.59   28.05
   8   8  -5   90.76   13.00
   8   8  -5   77.82   22.35
   8  -8   5  105.58   36.68
   8  -8   5  100.18   13.14
  -8   8  -5   74.75   18.59
   8  -8  -5   96.62   20.45
  -8  -8   5   78.65   24.77
   8  -8  -5   78.59   19.81
  -8  -8   5   98.58   20.24
   8  -8  -5   93.02   13.27
  -8  -8  -6  103.89   26.52
  -8  -8  -6  124.21   15.04
   8   8  -6  108.14   16.06
   8   8  -6   76.99   26.33
   8  -8   6  123.05   16.59
  -8  -8  -6   96.49   41.50
   8  -8   6   81.60   40.15
  -8  -8  -6  131.79   15.66
  -8  -8  -6   29.19   33.71
   8  -8  -6   66.80   21.89
   8  -8  -6  121.34   16.53
  -8   8  -6  112.15   24.77
  -8  -8   6  164.82   27.82
   8  -8  -6   54.62   23.62
  -8  -8   6  134.91   34.48
  -8  -8  -7  -29.08   35.95
  -8  -8  -7   30.53    7.95
   8   8  -7   36.11    7.94
  -8  -8  -7   34.57   14.76
   8  -8   7   -6.75   48.28
  -8  -8  -7   41.96   36.48
  -8  -8  -7   40.18    6.71
   8   8  -7    6.87   19.84
  -8  -8   7   55.04   13.55
  -8   8  -7   15.41   17.03
   8  -8  -7    7.77   19.32
  -8  -8   7  -13.01   28.18
   8  -8  -7   51.54    9.72
   8   8  -8   89.89   12.43
  -8  -8  -8   65.14   23.89
   8   8  -8   52.44   27.28
  -8  -8  -8   80.82   11.36
  -8  -8  -8   87.53   50.39
   8  -8  -8   82.33   14.83
  -8  -8   8   94.82   19.92
  -8  -8   8    0.68   33.15
   8  -8  -8   50.44   26.49
  -9  -8   0   22.28   10.63
   9  -8   0    3.98    1.86
  -9  -8   0   -1.26    9.02
   9  -8   0   -0.38    6.63
   9   8   0    7.62    3.53
  -9  -8  -1   -1.80    9.19
  -9  -8  -1   -1.05    5.26
  -9  -8  -1   44.17   34.81
   9   8  -1   -6.79   13.32
   9  -8   1    4.57    1.51
   9   8  -1    4.01    3.56
   9  -8   1    4.12    6.15
   9  -8  -1    0.63    5.24
   9   8   1    7.94    3.21
  -9  -8   1    1.89    6.74
  -9  -8   1   -1.22    9.19
   9   8  -2    7.65   14.52
   9   8  -2    1.12    2.79
  -9  -8  -2    4.10    9.19
   9  -8   2    0.01    1.39
  -9  -8  -2  -25.43   10.65
  -9  -8  -2  -36.09   29.02
  -9  -8   2   -5.80   11.50
   9   8   2   -0.49    2.89
   9  -8  -2   -2.06    3.72
  -9  -8   2    8.70    6.46
   9   8  -3    5.28   16.40
  -9  -8  -3   25.06   30.21
   9   8  -3    0.10    2.45
  -9  -8  -3    0.68    6.56
   9  -8   3    0.63    2.02
  -9  -8  -3    0.18   16.58
   9  -8  -3    3.41    4.99
  -9  -8   3    5.26    7.08
  -9  -8   3    1.60   14.21
  -9  -8  -4    7.98    7.73
   9   8  -4   12.55   19.00
   9   8  -4    4.14    3.10
  -9  -8  -4    6.68   20.35
  -9  -8  -4    9.46   32.13
   9  -8   4    0.69    2.76
  -9   8  -4    2.67    8.70
   9  -8  -4    1.65    2.70
  -9  -8   4    8.32    5.89
  -9  -8   4   12.72   16.12
   9  -8  -4    2.11    4.31
  -9  -8  -5  -13.96   29.72
   9  -8   5   48.07   39.33
   9   8  -5  -15.29   18.84
   9   8  -5    0.79    3.01
  -9  -8  -5    8.73   10.85
  -9  -8  -5    7.65   32.85
   9  -8   5    3.42    3.89
   9  -8  -5   15.44   12.71
  -9   8  -5   -7.92   11.61
   9  -8  -5    2.72    3.40
  -9  -8   5   -3.26    5.84
  -9  -8   5    9.32   22.36
   9  -8  -5   -6.57   10.95
   9   8  -6   -1.52    2.44
   9  -8   6   10.62   42.53
   9   8  -6  -41.01   19.62
  -9  -8  -6    0.80   35.96
  -9  -8  -6    0.91    8.10
  -9  -8  -6   10.00   36.37
   9  -8   6    1.73    3.60
  -9  -8   6  -28.15   24.78
   9  -8  -6    0.20    2.91
   9  -8  -6   13.67   15.06
  -9   8  -6    6.86   15.29
  -9  -8   6    2.21    5.12
   9  -8  -6   18.90   16.37
   9   8  -7  -12.99   24.56
  -9  -8  -7    6.05   11.53
   9   8  -7    1.33    3.50
  -9  -8  -7    0.73   43.65
  -9  -8   7   -4.31    3.30
   9  -8  -7   -1.67    3.43
   9  -8  -7   -3.10   18.65
  -9  -8   7   20.33   33.51
 -10  -8   0  141.66   28.20
  10   8   0   99.11   17.81
 -10  -8   0  146.58   46.43
 -10  -8   0   90.30   20.64
  10   8  -1   39.58    9.57
 -10  -8  -1   13.67   13.30
 -10  -8  -1   24.20   35.27
  10  -8   1   48.79    5.98
 -10  -8  -1   39.19   14.20
  10   8   1   35.00   10.04
 -10  -8   1   30.24   14.19
 -10  -8   1   40.03   14.78
  10  -8  -1   74.52   18.13
 -10  -8  -2   30.78   16.94
  10   8  -2   76.85   12.31
  10  -8   2   67.66    8.71
 -10  -8  -2   66.74   18.57
  10   8  -2   26.63   20.38
 -10  -8  -2   68.35   38.40
  10  -8  -2   79.50   17.02
 -10  -8   2   45.12   19.28
  10   8   2   47.27   13.07
 -10  -8   2   98.73   22.32
  10   8  -3   47.44    9.76
 -10  -8  -3   26.29   18.71
  10  -8   3   68.65    8.30
 -10  -8  -3   56.35   35.03
 -10  -8  -3   74.17   20.18
  10   8  -3   36.02   21.09
  10  -8  -3   51.39    8.19
  10  -8  -3   61.51   15.29
 -10  -8   3   81.11   18.49
 -10  -8   3   14.11   18.98
  10   8  -4  101.33   29.28
  10  -8   4  117.97   15.03
 -10  -8  -4   49.61   38.99
 -10  -8  -4   88.74   29.56
 -10  -8  -4  105.44   25.66
  10   8  -4  102.40   14.95
 -10  -8   4  144.45   27.63
  10  -8  -4  101.34   14.67
 -10  -8   4   82.91   28.74
  10  -8  -4  112.14   20.96
 -10  -8  -5  -18.64   28.37
  10   8  -5  -28.66   25.14
 -10  -8  -5   26.80   13.99
  10  -8   5   49.83    9.33
  10   8  -5   66.92    9.94
 -10  -8   5  -28.59   25.40
  10  -8  -5   37.22    7.83
 -10   8  -5   29.86   13.36
 -10  -8   5   65.18   16.49
 -11  -8   0   -6.63   36.33
  11   8   0    7.02    4.13
 -11  -8   0    2.89   13.87
 -11  -8   0   12.64    8.40
 -11  -8  -1    4.72    7.62
  11   8  -1    9.97    4.76
 -11  -8  -1  -30.45   34.00
 -11  -8  -1  -16.44   11.66
  11  -8   1    3.76    1.63
 -11  -8   1  -18.95   14.43
  11   8   1    1.15    3.46
 -11  -8   1   -3.11    4.60
 -11  -8   1  -21.05   42.57
 -11  -8  -2   16.83   32.95
 -11  -8  -2    8.67    8.39
 -11  -8  -2   20.39   15.86
  11   8  -2    2.50    3.74
 -11  -8   2   33.28   17.65
 -11  -8   2   12.93    9.75
 -11  -8  -3    4.57   17.60
 -11  -8  -3    5.63    8.83
  11  -8   3    4.28    3.45
  11   8  -3    7.27    3.85
  11   8  -3   -2.42   21.76
 -11  -8   3    2.09    7.40
 -11  -8   3  -20.96   19.87
  11  -8  -3    1.69    2.44
  11  -8  -3    5.38    6.30
   0  -9   0    0.20    5.70
   0   9   0   -1.77    3.61
   0   9   0    1.79    2.24
   0  -9   0   -2.05    1.79
   0   9  -1    1.14    6.08
   0   9   1    3.53    2.88
   0  -9  -1   -0.33    4.13
   0  -9   1   -1.24    1.39
   0  -9  -1    0.24    2.57
   0   9  -1   -0.85    1.94
   0   9   1   -1.63    3.95
   0  -9   1    5.94    6.20
   0   9  -2   -2.06    4.31
   0  -9  -2    3.02    2.70
   0  -9   2   -0.78    3.46
   0   9  -2   -0.40    1.75
   0  -9  -2   -0.58    3.29
   0  -9   2    0.48    1.62
   0  -9  -2    3.19    5.87
   0   9  -3    2.46    2.01
   0  -9  -3   -6.22    8.14
   0  -9  -3   -1.39   21.02
   0  -9   3    4.81    5.00
   0  -9   3    1.55    1.90
   0   9  -3   16.94   10.03
   0  -9  -3    3.69    3.00
   0  -9  -4  -19.04   15.52
   0  -9  -4    4.12    3.40
   0   9  -4    1.23    2.42
   0  -9   4    0.04    2.03
   0  -9   4  -15.22    8.61
   0   9  -4   -4.20    5.50
   0   9   5    3.50   19.43
   0   9  -5   -0.01    1.89
   0   9  -5    6.54    7.22
   0  -9   5   -4.33    7.81
   0  -9  -5    1.29    2.74
   0  -9  -5    0.06    2.22
   0  -9   5   -2.51    1.62
   0  -9  -5  -34.12   17.92
   0   9   6   19.71   28.65
   0   9  -6   11.81    9.33
   0   9  -6    0.82    2.30
   0  -9  -6    5.22    3.30
   0  -9  -6   -1.39    2.74
   0   9   6   -0.36    2.14
   0  -9  -6   33.31   19.41
   0  -9   6   19.69   16.47
   0  -9  -7   24.91   21.58
   0  -9   7   -7.36   14.36
   0   9  -7   -5.56    8.85
   0  -9  -7    5.76    3.88
   0   9   7   32.99   60.32
   0   9  -7    1.82    2.60
   0   9   7   -2.20    1.97
   0  -9   7    1.79    3.04
   0   9   8   93.19   81.46
   0  -9   8  -19.10   14.25
   0  -9  -8   -7.94   21.18
   0   9   8    4.36    4.23
   0   9  -8   12.54   12.74
   0   9  -8    2.91    3.34
   0  -9  -8    2.88    4.03
   0  -9  -9  -25.07   32.36
   0   9   9   76.42   62.84
   0   9  -9    6.08   25.80
   0  -9   9   -1.33   26.31
   0   9   9    4.59    4.71
   0   9  -9    6.14    3.99
   0  -9  -9    5.89    4.86
   0   9  10    0.78    3.95
   0  -9 -10    3.65    4.77
   0  -9  10   22.02   41.89
   0   9  10  -60.24   58.35
   0  -9 -10  -46.97   29.27
   0   9 -10   15.95   24.91
   0   9 -10   -1.13    3.17
   0   9 -11    2.29    3.82
   0   9  11   50.40   73.02
   0  -9 -11   -5.18   47.84
   0   9 -11  -19.27   25.33
   0  -9 -11   -0.68    3.51
   0  -9  11   -1.90   48.87
  -1   9   0  340.51   46.79
   1  -9   0  343.27   44.24
  -1  -9   0  370.97   44.12
   1   9   0  352.38   47.41
   1  -9   0  384.20   46.89
   1   9   0  292.74   44.16
  -1  -9   0  417.70   48.03
  -1  -9  -1 1624.55  203.89
   1  -9   1 1661.77  205.56
   1   9  -1 1671.04  206.30
  -1  -9  -1 1731.78  204.46
  -1  -9  -1 1731.62  207.43
   1   9  -1 1727.67  203.42
  -1   9   1 1492.07  205.93
   1  -9  -1 1437.97  203.87
   1  -9  -1 1880.17  207.05
  -1   9  -1 1634.03  205.69
  -1  -9   1 1752.34  206.32
  -1  -9  -2  350.62   46.29
   1  -9   2  364.77   40.61
  -1  -9  -2  260.80   41.92
  -1  -9  -2  348.79   42.08
   1   9  -2  348.37   40.80
  -1  -9   2  371.19   44.73
  -1   9  -2  312.42   43.38
  -1  -9   2  297.94   40.40
  -1   9  -2  294.82   40.67
   1  -9  -2  321.91   45.13
  -1  -9  -3  714.48  106.27
  -1  -9  -3  761.60  118.22
   1  -9   3  853.58  104.02
   1   9  -3  850.81  104.13
   1   9  -3  813.39  107.48
  -1  -9  -3  953.82  111.36
   1  -9   3  862.99  108.46
  -1  -9  -3  853.09  105.52
   1  -9  -3  892.52  109.81
  -1   9  -3  887.78  104.20
   1  -9  -3  849.20  104.42
  -1  -9   3  851.91  104.06
   1   9  -4  310.64   39.86
   1   9  -4  335.78   46.61
  -1  -9  -4  324.24   41.48
   1  -9   4  326.67   39.92
  -1  -9  -4  246.44   54.72
   1  -9   4  319.09   45.76
  -1  -9  -4  290.38   40.59
   1   9   4  281.29   40.77
  -1   9  -4  318.54   39.86
  -1  -9   4  369.30   46.63
   1  -9  -4  339.96   40.13
  -1  -9   4  319.33   39.95
  -1   9  -4  329.07   44.31
   1  -9  -4  363.90   60.98
   1   9  -5  379.95   47.09
   1  -9   5  495.77   61.01
   1   9  -5  334.64   51.72
  -1  -9  -5  375.85   48.05
  -1  -9  -5  362.06   48.51
   1  -9   5  362.31   47.13
  -1   9   5  356.52   89.02
  -1  -9  -5  429.42   70.24
   1  -9  -5  334.72   47.77
   1  -9  -5  482.38   72.64
  -1  -9   5  386.61   47.29
  -1   9  -5  449.39   55.28
  -1  -9  -6   28.01    7.83
   1   9  -6   34.84   17.87
  -1  -9  -6   42.03    9.66
  -1   9   6   81.32   53.53
  -1  -9  -6   29.59   23.66
   1  -9   6   29.18   14.19
   1   9  -6   35.07    7.21
   1  -9   6   33.89    7.17
   1   9   6   32.88    7.83
  -1   9  -6   35.21    6.79
  -1  -9   6   21.02   12.70
  -1  -9   6   31.72    6.83
   1  -9  -6   35.68   21.10
   1   9   6   35.64   32.52
  -1   9  -6   36.20   16.25
   1  -9  -6   32.46    8.22
  -1  -9  -7  435.21   73.63
   1  -9   7  130.85   35.69
   1   9  -7  193.74   26.91
  -1  -9  -7  213.85   28.26
   1   9  -7  253.06   46.64
   1  -9   7  223.44   27.63
   1   9   7  214.67   28.25
   1  -9  -7  265.04   48.84
  -1   9  -7  215.13   37.58
   1   9   7  120.49   52.48
  -1  -9   7  201.18   42.01
  -1   9  -7  193.57   26.84
  -1  -9   7  212.10   27.55
   1  -9  -7  210.56   28.16
  -1   9   8   98.93   46.29
  -1  -9  -8  126.27   18.54
   1   9  -8   85.84   13.11
  -1  -9  -8  121.45   56.29
   1  -9   8   78.12   28.03
   1   9  -8  129.66   34.10
   1   9   8  106.85   14.80
  -1  -9   8   40.80   24.80
   1  -9  -8   65.42   25.25
  -1   9  -8   83.93   13.06
  -1   9  -8   60.18   20.44
   1   9   8   -6.01   37.82
   1  -9  -8  128.67   18.51
  -1   9   9   78.41   56.31
   1   9  -9  134.99   19.00
   1  -9   9  131.38   38.49
   1   9  -9  117.27   27.48
  -1  -9  -9  152.19   20.45
  -1  -9  -9  126.24   47.00
   1   9   9  158.22   20.72
  -1   9  -9  205.08   46.11
   1  -9  -9  173.15   45.34
  -1  -9   9   51.19   33.70
   1  -9  -9  133.37   20.19
  -1   9  -9  124.17   18.61
   1   9   9   69.40   57.16
   1  -9  10  -69.37   70.70
  -1   9  10 -157.47  107.54
   1   9 -10   34.84    8.67
  -1  -9 -10   52.63   11.00
   1   9 -10   21.43   20.19
  -1  -9 -10   29.56   49.02
   1   9  10   31.59    9.96
  -1   9 -10   42.52    8.75
   1  -9 -10   43.03    9.79
   1  -9 -10    3.50   29.85
  -1  -9  10  119.14   54.72
  -1   9 -10   16.44   25.33
   1   9  10   39.65   61.30
   1   9 -11   31.76   33.44
   1  -9  11   25.63   52.41
  -1  -9 -11   67.30   13.22
  -1  -9 -11  -17.54   49.24
  -1   9  11   64.04   87.12
   1   9 -11   54.12   11.10
   1  -9 -11   42.45   33.52
   1   9  11  -58.93   66.10
  -1   9 -11  -20.71   29.55
  -1   9 -11   58.15   11.25
   1  -9 -11   46.06   11.39
  -1  -9  11   94.87   49.68
  -2  -9   0   -0.77    1.32
   2  -9   0    0.46    4.07
  -2   9   0    0.36    4.49
   2  -9   0   -1.34    1.81
  -2  -9   0    1.20    4.78
  -2  -9   0    0.01    2.15
   2   9   0    2.66    2.63
   2   9   0   -0.29    4.50
   2  -9   1    4.13    2.22
  -2  -9  -1    0.90    2.41
  -2  -9  -1   -2.74    5.05
   2  -9   1   -2.18    3.57
  -2   9   1    4.07    5.03
  -2  -9  -1    1.11    2.74
   2   9  -1   -4.06    4.28
   2   9  -1    1.66    2.24
   2  -9  -1    6.02    3.82
   2   9   1   -2.88    5.05
  -2  -9   1   -1.57    3.39
  -2   9  -1    3.09    2.20
  -2   9  -1    5.20    4.90
   2  -9  -1    3.12    5.04
   2   9   1    2.89    2.91
  -2  -9   1    1.74    1.92
   2   9  -2   -0.97    1.92
   2  -9   2    3.20    2.01
  -2  -9  -2    3.10   13.83
  -2  -9  -2    1.45    3.48
  -2  -9  -2   -3.43    2.79
   2  -9   2    5.48    4.44
   2   9  -2   -1.53    4.95
  -2  -9   2    0.86    1.99
   2  -9  -2   21.15   14.88
  -2  -9   2    1.04    5.62
  -2   9  -2    7.25    5.27
  -2   9  -2    4.00    2.75
   2  -9  -2   -1.28    5.30
   2   9  -3    0.83   10.50
  -2  -9  -3  -13.67    6.87
   2  -9   3    4.71    6.71
  -2  -9  -3    1.32    3.67
  -2  -9  -3   21.06   18.93
  -2  -9  -3   -0.87    2.94
   2   9  -3    1.16    1.86
   2  -9   3    2.03    1.76
  -2  -9   3   -0.44    1.56
   2  -9  -3    2.23   16.21
  -2   9  -3    5.53    2.66
  -2   9  -3   -1.30    4.32
  -2  -9   3    0.32    3.91
   2   9   3   -0.08    2.91
   2  -9  -3   -2.95    5.88
  -2  -9  -4  -22.52   17.86
   2   9  -4    1.06    2.19
  -2  -9  -4    5.49    3.54
   2  -9   4    9.11    8.43
  -2  -9  -4   14.49    9.83
   2  -9   4    1.50    2.07
  -2  -9  -4   -0.29    4.23
  -2  -9  -4   -0.14    3.07
   2   9  -4    3.51    5.94
  -2   9  -4    0.49    2.04
  -2   9  -4    3.21    6.23
   2   9   4    0.38    2.99
   2  -9  -4   -0.19   14.30
  -2  -9   4    0.87    2.12
  -2  -9   4    9.78    8.82
  -2  -9  -5    6.16    3.71
  -2  -9  -5    3.84    4.17
  -2   9   5   11.27   23.31
   2  -9   5   12.54   12.07
   2   9  -5  -11.34    6.90
   2   9  -5   -1.71    1.58
   2  -9   5    0.73    2.04
  -2  -9  -5    9.61   20.56
  -2  -9   5   -8.26   12.80
   2   9   5    1.00    3.71
  -2   9  -5    8.94    7.96
   2  -9  -5   -1.64    2.19
  -2  -9   5    3.21    2.44
   2  -9  -5    8.77   17.20
  -2   9  -5    0.02    1.96
  -2  -9  -6    0.99    5.09
   2   9  -6    0.97    2.65
  -2   9   6  -31.91   23.49
   2   9  -6   -3.77    7.53
  -2  -9  -6   -0.67    3.02
   2  -9   6   -0.83   13.00
   2  -9   6    2.76    3.05
  -2  -9  -6   14.79   20.99
  -2   9  -6    4.95    2.88
   2  -9  -6  -16.25   16.10
  -2  -9   6    1.17    3.14
  -2  -9   6  -11.61   11.22
   2   9   6    3.39   27.75
   2   9   6    4.12    4.42
   2  -9  -6    0.30    3.39
  -2   9  -6   -7.40    7.80
  -2  -9  -7    0.32    3.34
   2   9  -7    6.73    3.63
   2   9  -7    2.38   11.60
  -2  -9  -7  -22.84   24.07
  -2   9   7   -5.21   30.31
   2  -9   7   -5.25   17.48
   2  -9   7    2.22    3.39
  -2  -9  -7    8.69    6.10
   2   9   7  -22.69   30.70
  -2   9  -7    3.42    3.15
   2  -9  -7   19.76   22.35
   2  -9  -7    6.09    4.55
  -2  -9   7   -0.19    3.18
  -2  -9   7    5.82   13.17
  -2   9  -7    0.85   11.58
   2   9   7    3.00    5.03
   2   9  -8    7.84    4.03
  -2   9   8  -17.22   35.10
   2   9  -8    3.22   16.54
  -2  -9  -8   21.53   28.98
  -2  -9  -8    5.82    4.29
   2  -9   8  -17.40   19.60
   2  -9  -8   -6.12   20.37
   2   9   8  -15.28   41.12
   2   9   8    1.11    4.57
  -2  -9   8    5.76   41.47
  -2   9  -8   18.75   15.60
  -2   9  -8    5.87    3.75
   2  -9  -8    4.18    4.50
   2   9  -9    2.01   17.76
   2  -9   9  -12.44   21.57
  -2  -9  -9   -3.30    3.28
  -2  -9  -9   21.28   28.89
   2   9  -9   -0.01    2.96
  -2   9   9   41.73   49.70
   2   9   9    2.89    5.39
  -2   9  -9   -5.71   17.39
   2  -9  -9  -26.87   26.56
  -2   9  -9   -1.47    2.57
   2  -9  -9   -3.75    2.86
  -2  -9   9  -36.06   30.65
   2   9   9  -21.21   49.88
   2  -9  10   -8.84   32.79
  -2   9  10  -61.00   55.90
  -2  -9 -10    3.47    4.12
   2   9 -10    4.32    3.85
   2   9 -10   53.76   25.34
  -2  -9 -10    9.12   28.09
   2   9  10   -1.37    5.16
   2  -9 -10    3.51    4.51
   2   9  10  -54.08   56.06
  -2  -9  10   17.85   37.06
  -2   9 -10  -23.65   22.03
   2  -9 -10  -21.14   27.92
  -2   9 -10    1.38    3.40
   2   9 -11    4.94   25.18
  -2  -9 -11    1.93    4.55
   2  -9  11   20.92   58.49
  -2  -9 -11   68.21   39.92
   2   9 -11   -0.30    3.92
  -2   9  11  -43.36   75.59
   2   9  11   -1.91    5.55
   2  -9 -11   30.60   38.35
   2   9  11  -50.66  114.60
  -2  -9  11    2.74   44.56
  -2   9 -11   -2.47    3.02
  -2   9 -11    1.12   28.13
   2  -9 -11   -1.25    4.48
   3  -9   0  366.15   49.93
  -3  -9   0  453.98   49.67
  -3  -9   0  388.31   53.39
  -3   9   0  368.01   51.91
   3   9   0  356.37   53.35
   3  -9   0  414.09   51.77
  -3  -9   0  411.02   51.91
   3   9   0  403.10   50.36
   3   9  -1  838.39  106.00
  -3  -9  -1  884.78  104.54
   3   9  -1  855.67  102.28
   3  -9   1  826.58  101.94
   3  -9   1  863.63  104.17
  -3  -9  -1  845.17  106.88
  -3   9   1  769.30  104.54
  -3  -9   1  786.46  103.96
  -3  -9   1  812.75  105.41
   3  -9  -1  832.23  104.66
  -3  -9   1  870.27  101.74
   3   9   1  778.48  106.10
  -3   9  -1  796.41  104.25
  -3  -9  -2  128.17   20.02
   3   9  -2  148.20   19.25
   3  -9   2  148.63   18.99
   3   9  -2  155.88   23.57
  -3  -9  -2  137.94   21.45
   3  -9   2  152.51   22.66
   3  -9  -2  155.56   23.31
  -3  -9   2  153.52   23.51
   3   9   2  148.02   21.19
  -3  -9   2  170.16   19.13
  -3   9  -2  152.51   22.08
   3  -9  -2  139.73   32.18
   3   9   2  105.74   21.82
   3  -9   3  427.06   49.52
  -3  -9  -3  377.83   50.25
  -3  -9  -3  450.47   52.10
   3   9  -3  376.27   53.58
   3  -9   3  395.09   54.23
  -3  -9  -3  333.75   69.03
  -3  -9  -3  463.32   58.96
   3   9  -3  399.63   49.69
  -3  -9  -3  394.76   52.31
  -3   9  -3  365.35   49.58
  -3  -9   3  435.28   55.08
   3   9   3  349.76   51.44
   3  -9  -3  417.86   54.65
  -3   9  -3  378.92   52.54
   3  -9  -3  353.21   60.44
  -3  -9   3  432.80   49.68
  -3  -9  -4  150.15   23.02
  -3  -9  -4  166.73   21.17
   3   9  -4  227.94   28.99
   3   9  -4  132.72   20.05
  -3  -9  -4  152.86   31.33
  -3  -9  -4  159.46   41.81
   3  -9   4  150.74   27.99
   3  -9   4  150.65   20.05
  -3  -9  -4  145.28   22.78
   3   9   4  139.72   21.99
  -3   9  -4  155.73   20.14
   3  -9  -4  188.35   38.42
  -3   9  -4  180.37   25.21
  -3  -9   4  160.01   20.25
  -3  -9   4  197.31   30.72
  -3  -9  -5  338.69   46.94
   3  -9   5  339.72   51.87
  -3  -9  -5  387.21   54.99
  -3  -9  -5  349.34   46.30
  -3  -9  -5  333.67   63.49
   3   9  -5  303.08   48.42
   3  -9   5  358.86   43.24
  -3  -9  -5  326.81   43.92
   3   9  -5  346.07   43.19
  -3   9  -5  373.08   43.07
  -3  -9   5  324.55   51.08
   3   9   5  344.68   45.53
   3  -9  -5  441.47   59.08
  -3  -9   5  324.62   43.18
   3  -9  -5  305.63   43.71
  -3   9  -5  350.77   48.65
   3  -9   6  276.53   34.85
  -3  -9  -6  234.37   54.18
  -3  -9  -6  205.41   37.35
  -3  -9  -6  299.50   38.58
  -3   9   6  164.37   52.00
   3   9  -6  280.01   34.74
   3   9  -6  305.52   42.13
   3  -9   6  225.07   45.46
  -3  -9  -6  250.12   35.35
   3  -9  -6  319.45   50.38
   3  -9  -6  275.48   35.65
  -3   9  -6  276.67   34.44
  -3  -9   6  273.63   34.96
   3   9   6  294.69   37.37
  -3   9  -6  310.71   42.45
  -3  -9   6  230.56   45.52
  -3  -9  -7  378.91   45.00
   3  -9   7  351.07   60.90
   3   9  -7  315.72   51.74
  -3  -9  -7  332.51   47.40
   3   9  -7  385.45   44.14
   3  -9   7  315.95   44.06
  -3   9   7  178.97   61.52
  -3  -9  -7  673.44  101.63
  -3   9  -7  341.55   43.57
  -3   9  -7  308.48   52.21
   3  -9  -7  260.51   53.62
  -3  -9   7  379.79   44.54
   3   9   7  344.00   46.53
  -3  -9   7  517.93   75.30
   3  -9  -7  328.72   44.72
   3   9  -8   56.07   10.42
  -3   9   8   12.60   40.60
   3  -9   8  -11.62   23.70
  -3  -9  -8   67.99   12.61
  -3  -9  -8   73.35   58.75
   3   9  -8   30.68   17.88
  -3  -9   8   19.11   22.63
   3  -9  -8   58.26   12.12
  -3   9  -8   57.47    9.79
   3  -9  -8   58.44   24.82
  -3   9  -8   29.36   19.54
   3   9   8   50.42   45.89
  -3  -9   8   48.25   10.31
   3   9   8   69.71   14.75
  -3  -9  -9  100.59   46.29
   3   9  -9  130.18   50.64
   3  -9   9   40.11   35.10
   3   9  -9   67.69   12.95
  -3   9   9   52.37   51.88
  -3  -9  -9   62.86   13.67
   3   9   9   99.31   19.96
   3   9   9   48.10   55.25
  -3  -9   9   81.73   33.47
  -3   9  -9   27.82   19.88
  -3   9  -9   81.26   11.29
   3  -9  -9   63.91   13.81
   3  -9  -9   83.78   27.41
   3   9 -10   14.21   24.76
  -3   9  10  -12.91   55.07
  -3  -9 -10   61.71   12.27
   3  -9  10  -20.38   45.94
   3   9 -10   51.99   10.63
  -3  -9 -10   63.15   41.14
  -3   9 -10   57.15   28.07
   3   9  10   68.00   17.59
   3  -9 -10   19.13   33.33
  -3   9 -10   47.01    9.81
  -3  -9  10   65.27   42.83
   3  -9 -10   45.98   11.47
   3   9  10    5.28   65.17
   4  -9   0    2.49    2.50
  -4  -9   0    1.02    3.80
   4   9   0    2.37    6.23
   4   9   0    1.27    2.63
  -4  -9   0    0.42    1.87
  -4   9   0    7.11    5.31
   4  -9   0    3.24    4.32
  -4  -9  -1    3.26    2.08
  -4  -9  -1    1.25    2.87
   4   9  -1    1.88    2.42
   4  -9   1    3.31    1.93
   4   9  -1    1.52    6.25
   4  -9   1   -1.85    3.58
   4  -9  -1    3.42    5.45
   4   9   1    0.95    3.68
  -4  -9   1   -1.43    2.45
   4   9   1    6.01    3.48
  -4  -9   1    2.43    1.79
  -4   9  -1   -0.08    4.58
   4   9   1    3.82    7.16
   4   9  -2    1.68    2.16
   4  -9   2   -3.39    5.23
   4  -9   2    2.29    1.73
  -4  -9  -2    2.08    2.41
  -4  -9  -2   -3.11    8.12
   4   9  -2    0.71    6.60
  -4  -9  -2    3.61    4.91
  -4   9  -2    1.07    5.17
   4  -9  -2   -0.07    2.84
   4   9   2   -1.56    1.41
   4  -9  -2    4.71   14.17
  -4  -9   2   -1.30    1.39
   4   9   2    2.37    3.08
  -4  -9   2   -0.48    2.45
   4  -9  -2    0.51    5.70
   4  -9   3    2.14    1.74
  -4  -9  -3   -0.12    2.19
  -4  -9  -3   11.20    5.27
  -4  -9  -3    8.45    4.02
   4  -9   3   -4.49    7.38
   4   9  -3    2.83    6.94
  -4  -9  -3   62.31   26.17
  -4  -9  -3   14.72   10.50
  -4  -9   3    0.95    1.91
   4   9   3    2.94    4.28
   4  -9  -3   -8.74   12.13
  -4  -9   3    0.48    2.85
  -4  -9   3    6.52    7.62
   4  -9  -3    8.22    7.26
  -4   9  -3   -3.51    4.75
  -4  -9  -4   -3.48    3.51
   4   9  -4   -1.04    1.89
  -4  -9  -4    3.49   11.58
   4  -9   4   -3.26    8.49
  -4  -9  -4    2.57    5.24
   4   9  -4    0.32    7.85
  -4  -9  -4   18.32   23.52
  -4  -9  -4    3.99    3.21
   4  -9   4    3.19    2.07
   4   9   4   -1.09    2.56
  -4   9  -4    2.49    2.10
  -4  -9   4    4.78    2.72
   4  -9  -4   -2.66   13.08
  -4   9  -4    4.63    7.51
   4  -9  -4   -1.19    7.99
  -4  -9   4    2.08    8.70
   4   9  -5    4.90    3.02
  -4  -9  -5   10.80   21.87
   4   9  -5   -3.41    7.00
  -4  -9  -5    1.75   11.65
  -4  -9  -5    2.65    5.35
  -4  -9  -5    1.27    2.98
   4  -9   5   -3.39   12.01
   4  -9   5   -0.32    2.25
  -4  -9  -5    3.72    5.10
  -4   9  -5    4.04    2.68
  -4  -9   5    1.89    2.70
  -4  -9   5   11.34   11.08
   4  -9  -5    0.69    2.69
   4   9   5   10.22    6.48
  -4   9  -5  -16.59    7.76
   4  -9  -5   -8.20   15.31
   4   9  -6   -2.90    9.60
  -4  -9  -6   -3.75    5.41
  -4  -9  -6  -30.19   23.01
  -4   9   6   -5.53   27.06
   4  -9   6    0.99    2.68
  -4  -9  -6   -6.48    5.00
   4   9  -6   -0.84    2.32
  -4  -9  -6    1.76    3.18
   4  -9   6    3.72   16.32
  -4   9  -6   11.97   10.16
  -4   9  -6    1.22    2.57
   4   9   6    0.88    5.72
  -4  -9   6   22.29   12.88
  -4  -9   6    0.85    3.11
   4  -9  -6    2.80    3.55
   4  -9  -6   -7.24   14.94
  -4  -9  -7    3.74    6.95
   4   9  -7    3.36    3.54
  -4  -9  -7   66.74   27.91
  -4  -9  -7    4.29    3.84
   4  -9   7  -28.30   19.98
  -4  -9  -7   -0.64    6.60
   4   9  -7   -2.02   13.55
   4  -9   7   -4.74    2.28
   4   9   7    5.72    6.99
  -4  -9   7    7.49   15.93
   4  -9  -7  -11.38   17.44
  -4   9  -7   -0.54   13.35
  -4   9  -7   -1.89    2.18
  -4  -9   7    1.89    3.60
   4  -9  -7   -3.52    2.50
  -4  -9  -8  -28.60   31.59
   4   9  -8    1.77    3.06
  -4  -9  -8    8.97    8.69
  -4  -9  -8    0.95    3.32
   4   9  -8  -21.32   14.47
  -4   9   8   17.13   38.10
   4  -9   8   21.03   28.57
   4   9   8    0.44    5.66
   4  -9  -8   29.72   25.41
  -4   9  -8    2.52    3.14
  -4  -9   8    6.09    4.14
   4  -9  -8    2.20    3.66
  -4   9  -8   -7.03   16.15
  -4  -9   8   10.34   22.46
   4   9  -9    6.01   20.93
   4   9  -9    0.47    3.46
  -4  -9  -9   -0.96    3.13
  -4  -9  -9   -3.77   36.68
  -4   9   9   18.10   49.82
  -4  -9   9   59.46   33.07
   4   9   9    6.13    7.94
   4  -9  -9    6.90   25.35
   4  -9  -9    5.36    4.53
  -4   9  -9    7.12    3.97
  -4   9  -9   -7.64   20.61
  -4  -9 -10  -33.25   36.00
   4   9 -10    7.86   22.92
   4  -9  10  -20.07   39.29
  -4   9  10   16.00   65.83
  -4  -9 -10    4.89    4.49
   4   9 -10    7.00    4.74
   4  -9 -10    8.11   32.47
  -4   9 -10   16.00    5.49
  -4   9 -10  -55.33   24.34
   4  -9 -10    5.82    5.04
  -4  -9  10    4.24   40.06
   5   9   0   56.74   15.08
   5  -9   0   81.15   11.86
   5  -9   0   49.01    8.20
  -5  -9   0   84.13   16.55
   5   9   0   47.91    9.99
  -5  -9   0   75.12   16.30
  -5   9   0   58.30   11.59
  -5  -9   0   54.27    7.79
   5  -9   0   78.96   14.78
   5  -9   1  385.32   54.81
   5  -9   1  428.36   51.51
   5   9  -1  424.75   52.07
  -5  -9  -1  485.21   58.07
   5   9  -1  380.25   56.29
  -5  -9  -1  445.78   55.65
  -5  -9  -1  397.97   51.29
   5  -9   1  397.78   53.67
  -5  -9   1  461.92   56.31
   5  -9  -1  413.02   59.81
   5  -9  -1  464.58   54.35
   5  -9  -1  427.90   53.30
  -5   9  -1  375.80   53.45
   5   9   1  404.43   54.44
  -5  -9   1  411.18   54.89
   5   9   1  346.08   56.18
  -5  -9   1  421.95   51.23
   5   9  -2  194.88   25.14
  -5  -9  -2  179.89   28.56
   5   9  -2  184.61   32.95
  -5  -9  -2  124.08   44.72
   5  -9   2  201.87   29.27
   5  -9   2  201.22   24.64
   5  -9   2  186.07   28.50
  -5  -9  -2  189.32   25.22
  -5  -9  -2  211.62   25.15
  -5  -9  -2  239.55   38.19
   5  -9  -2  203.26   28.29
  -5   9  -2  189.64   27.54
  -5  -9   2  165.54   27.51
   5   9   2  191.62   27.87
   5  -9  -2  188.07   26.58
   5  -9  -2  186.76   35.18
  -5  -9   2  183.75   29.67
  -5  -9   2  212.00   24.76
  -5  -9  -3  234.58   60.76
   5  -9   3  353.04   41.61
   5   9  -3  274.57   46.17
   5   9  -3  351.31   42.04
  -5  -9  -3  328.13   42.27
  -5  -9  -3  328.37   46.05
  -5  -9  -3  357.61   42.78
   5  -9   3  334.71   47.25
   5  -9   3  371.41   46.88
   5  -9  -3  389.32   51.28
   5   9   3  310.19   44.74
   5  -9  -3  325.57   42.60
   5  -9  -3  332.15   45.79
  -5  -9   3  296.36   44.47
  -5  -9   3  348.29   47.96
  -5  -9   3  361.78   41.81
  -5   9  -3  288.63   44.40
  -5  -9  -4  174.85   45.57
  -5  -9  -4  176.54   21.84
   5  -9   4  175.69   26.22
   5   9  -4  144.30   27.54
  -5  -9  -4  157.25   25.53
   5  -9   4  166.78   30.82
   5  -9   4  168.09   21.04
   5   9  -4  154.08   21.24
  -5  -9  -4  223.18   43.74
  -5  -9  -4  175.14   23.10
  -5   9  -4  135.28   20.58
   5  -9  -4  135.91   26.50
  -5  -9   4  169.54   24.44
   5  -9  -4  224.96   36.91
   5   9   4  166.93   24.49
  -5  -9   4  183.72   21.43
  -5   9  -4  158.78   25.72
   5   9  -5  464.99   63.23
  -5  -9  -5  519.59   72.05
   5  -9   5  450.23   62.50
   5   9  -5  475.53   57.13
  -5  -9  -5  323.29   75.17
   5  -9   5  403.51   65.80
   5  -9   5  432.82   56.87
  -5  -9  -5  459.12   57.50
  -5  -9  -5  473.80   62.01
  -5  -9  -5  546.55   60.51
   5  -9  -5  428.92   57.48
   5   9   5  474.63   60.90
  -5  -9   5  454.43   57.10
  -5  -9   5  448.16   60.11
  -5  -9   5  494.73   69.27
   5  -9  -5  507.97   68.05
  -5   9  -5  410.57   56.53
  -5   9  -5  515.26   62.92
  -5  -9  -6  101.12   36.18
  -5  -9  -6   96.89   14.23
  -5  -9  -6  123.64   34.92
   5  -9   6  101.72   13.87
  -5  -9  -6  128.19   25.51
   5  -9   6  109.80   33.90
  -5  -9  -6  120.81   21.84
   5   9  -6   86.69   13.62
   5  -9   6  146.48   38.94
  -5   9   6   24.50   33.20
   5   9  -6   91.06   20.54
  -5  -9   6   54.88   23.09
  -5   9  -6   75.25   21.24
  -5  -9   6  154.21   24.29
  -5   9  -6   96.50   13.39
   5  -9  -6   95.19   14.52
   5   9   6  146.60   24.96
  -5  -9   6   94.84   13.94
   5  -9  -6  119.69   29.04
  -5   9   7   37.15   40.80
  -5  -9  -7  127.89   18.46
   5  -9   7   64.50   27.52
  -5  -9  -7   88.16   42.26
  -5  -9  -7  193.27   30.38
   5   9  -7  124.08   17.99
   5  -9   7  161.41   18.77
  -5  -9  -7  148.34   27.41
   5  -9  -7  138.61   19.06
   5  -9  -7  120.18   35.17
  -5   9  -7  120.47   17.39
  -5  -9   7  132.98   18.37
  -5   9  -7   98.19   26.64
   5   9   7  161.60   28.48
  -5  -9   7  127.47   36.90
  -5  -9  -8    0.92   34.01
  -5  -9  -8  116.36   22.85
   5   9  -8   30.34   19.48
   5   9  -8   86.68   12.17
  -5   9   8   47.00   49.49
  -5  -9  -8   52.07   16.93
  -5  -9  -8   83.91   14.22
   5  -9  -8   34.28   23.81
  -5  -9   8   66.32   32.56
  -5   9  -8   81.51   25.05
   5  -9  -8   88.55   14.93
  -5   9  -8   73.75   11.30
  -5  -9   8  101.03   15.34
   5   9  -9   68.64   27.38
  -5  -9  -9  111.68   52.24
  -5  -9  -9  110.53   17.64
   5  -9   9   52.42   42.07
   5   9  -9  110.22   17.67
   5  -9  -9  124.06   19.35
  -5   9  -9   99.14   14.52
  -5   9  -9  143.06   31.72
   5  -9  -9   28.54   28.42
  -5   9  10  -32.86   62.08
  -5  -9 -10   91.10   51.86
   5   9 -10   23.44   23.00
   5  -9  10  -68.05   49.80
   5   9 -10   37.55    8.87
  -5  -9 -10   35.34    8.81
   5  -9 -10   -2.34   26.64
  -5   9 -10   22.28   29.11
   5  -9 -10   51.86   11.14
  -5  -9  10  -22.86   39.78
  -5   9 -10   32.56    7.13
  -6  -9   0   -0.70    1.11
  -6  -9   0   14.81    7.71
   6  -9   0   -2.74    2.46
   6   9   0   -0.03    8.99
  -6  -9   0    3.23    5.64
   6  -9   0    1.64    1.87
   6   9   0    6.37    4.98
   6   9   0    2.19    2.87
  -6  -9  -1   11.62    6.59
  -6  -9  -1   -2.82    8.46
   6  -9   1   -1.03    4.73
   6  -9   1    2.46    1.34
   6  -9   1   -3.28    5.89
   6   9  -1    1.61    2.40
  -6  -9  -1    1.08    1.79
   6   9  -1    5.17    9.19
  -6  -9  -1   -0.74    1.15
  -6  -9   1    0.10    1.27
  -6  -9   1   -5.54    6.25
  -6  -9   1    5.66    5.08
   6  -9  -1  -15.49    9.47
   6   9   1    6.95    5.94
   6   9   1    5.66    2.78
   6  -9  -1    0.37    3.99
   6  -9  -1   -0.26    4.13
  -6   9  -1   -0.20    5.45
   6   9   1    4.39    9.86
  -6  -9  -2    4.45    1.94
  -6  -9  -2    4.29    5.70
  -6  -9  -2    3.63    2.56
   6  -9   2    1.53    5.13
   6   9  -2   -1.03    9.40
  -6  -9  -2   -4.73    8.71
   6   9  -2   -0.74    2.09
  -6  -9  -2   -4.76   25.01
   6  -9   2    8.48    8.73
   6  -9   2    2.71    1.87
   6   9   2   -3.83    2.56
   6  -9  -2    7.29    6.42
   6  -9  -2   -8.48    9.18
   6  -9  -2    3.26    3.20
  -6  -9   2  -15.98    6.81
  -6  -9   2   -0.81    4.97
   6   9   2   10.31    3.79
  -6   9  -2   -0.53    5.54
  -6  -9   2   -0.71    1.66
  -6  -9  -3   11.60   29.13
   6   9  -3   -6.07    9.28
   6   9  -3    2.12    2.59
   6  -9   3    2.06    9.83
  -6  -9  -3   -6.02   11.00
  -6  -9  -3    4.72    2.29
   6  -9   3    5.00    2.11
  -6  -9  -3    1.67    6.35
   6  -9   3   12.89    7.79
  -6  -9  -3   -0.95    2.24
   6  -9  -3   -7.54    7.63
  -6   9  -3   12.74    6.93
  -6  -9   3    1.69    4.48
  -6  -9   3    1.99    2.14
  -6  -9   3   -8.60    7.96
   6  -9  -3    1.78    3.16
   6  -9  -3    2.69   10.88
  -6  -9  -4   22.09   29.87
   6  -9   4    1.28    2.07
  -6  -9  -4    2.16    2.85
  -6  -9  -4   12.88   15.15
  -6  -9  -4   10.97    4.03
   6  -9   4    3.80   12.82
   6   9  -4   16.04   10.86
   6   9  -4    4.39    3.13
   6  -9   4    3.69    6.48
  -6  -9  -4    1.10    5.58
   6   9   4   -0.49    4.34
   6  -9  -4    6.67   12.26
  -6  -9   4    6.34    4.13
   6  -9  -4   -6.36    9.03
  -6   9  -4    8.12    7.91
  -6  -9   4   30.02   13.14
  -6  -9   4    1.58    2.53
   6   9  -5    2.82   10.17
   6   9  -5    0.71    2.37
  -6  -9  -5    3.54    6.33
   6  -9   5    0.17    2.42
  -6  -9  -5    8.75    3.46
  -6  -9  -5   16.14   28.75
  -6  -9  -5    2.68    2.84
   6  -9   5   19.60   16.46
  -6   9  -5    4.39   10.97
   6  -9  -5   10.23   10.49
   6  -9  -5  -22.46   11.80
   6  -9  -5   -0.98    2.50
  -6  -9   5   -2.32    3.41
  -6  -9   5   -0.14    2.53
   6   9   5    1.48    5.10
  -6  -9   5  -11.28   10.73
  -6  -9  -6  -15.47   20.38
  -6  -9  -6   11.05    6.45
  -6  -9  -6   11.76   30.63
   6  -9   6   -6.56   20.07
   6   9  -6   -2.12    2.35
  -6  -9  -6    9.03    6.64
   6   9  -6   12.23   13.42
  -6  -9  -6    1.32    3.10
   6  -9   6    1.70    3.05
  -6  -9   6   13.09   17.62
   6  -9  -6    2.64    3.74
  -6   9  -6   11.56   12.32
  -6  -9   6    7.46    4.24
  -6   9  -6    1.60    2.09
   6  -9  -6  -10.46   14.93
  -6  -9   6    1.89    4.39
   6   9  -7   13.18   13.87
  -6  -9  -7    8.05    6.82
  -6   9   7  -39.80   37.37
   6  -9   7    9.39   27.34
  -6  -9  -7  -21.22   24.31
   6   9  -7    4.74    4.10
  -6  -9  -7    9.10    6.74
  -6  -9  -7   -0.24    3.27
  -6  -9  -7  -19.75   29.27
   6  -9  -7    1.49    3.90
  -6  -9   7   -0.03    3.09
   6  -9  -7   -8.65   18.20
  -6  -9   7    1.26    4.40
  -6   9  -7   -1.50   14.80
  -6   9  -7   10.28    3.36
  -6  -9  -8   -0.33    5.93
   6   9  -8   -5.92   16.25
   6  -9   8   15.67   34.57
  -6  -9  -8    2.13    3.84
   6   9  -8    3.43    4.03
  -6   9   8  -32.88   46.99
  -6  -9  -8   11.27   25.00
  -6  -9  -8    2.23    8.09
  -6  -9  -8   26.79   37.23
  -6  -9   8    9.16    6.09
  -6  -9   8   15.30   26.26
  -6   9  -8    7.04    3.65
   6  -9  -8  -41.77   19.63
  -6  -9   8    0.11    3.64
   6  -9  -8    5.55    4.79
  -6   9  -8  -33.37   16.19
   6   9  -9    9.47   21.18
  -6  -9  -9    2.49    3.93
  -6  -9  -9   -8.79   26.21
  -6   9   9   27.25   64.42
  -6  -9  -9   41.33   43.57
   6   9  -9    0.15    3.79
   6  -9   9  126.61   55.96
   6  -9  -9   -0.90    3.27
  -6  -9   9    0.48    4.71
  -6   9  -9    4.26    3.28
  -6   9  -9  -13.42   21.90
   6  -9  -9   -0.96   29.92
  -6  -9   9   15.99   32.33
  -6  -9   9   -0.61    3.85
   7   9   0   67.11   16.77
  -7  -9   0  113.14   21.85
   7   9   0   85.03   17.70
   7  -9   0   42.61    7.58
   7  -9   0   64.80   13.71
  -7  -9   0   81.09   16.47
   7   9   0   56.47   10.56
   7   9  -1  205.72   27.60
  -7  -9  -1  227.64   33.52
   7  -9   1  202.19   31.00
   7   9  -1  231.61   34.05
   7  -9   1  215.84   26.56
  -7  -9  -1  207.16   25.91
  -7  -9  -1  207.01   26.00
  -7  -9  -1  204.76   32.04
  -7  -9   1  203.89   31.86
  -7  -9   1  198.67   31.34
   7   9   1  214.63   30.95
   7  -9  -1  244.00   30.60
  -7  -9  -2  162.24   20.55
  -7  -9  -2  171.15   50.39
   7   9  -2  175.50   31.27
  -7  -9  -2  116.76   27.56
  -7  -9  -2  167.09   20.72
   7   9  -2  149.58   21.65
   7  -9   2  179.87   26.66
   7  -9   2  186.58   20.98
  -7  -9  -2  181.11   30.48
   7  -9   2  156.17   27.21
   7  -9  -2  155.02   23.69
  -7   9  -2  142.84   23.61
  -7  -9   2  167.91   20.49
  -7  -9   2  150.53   29.02
  -7  -9   2  189.31   26.42
   7  -9   3  345.11   53.29
   7  -9   3  387.70   52.32
  -7  -9  -3  354.48   73.26
   7   9  -3  364.62   53.28
  -7  -9  -3  376.63   45.84
  -7  -9  -3  462.08   58.86
  -7  -9  -3  338.06   51.84
  -7  -9  -3  394.28   45.76
   7  -9   3  393.51   45.98
   7   9  -3  362.41   46.55
   7   9   3  387.88   51.47
   7  -9  -3  356.47   49.65
  -7   9  -3  307.68   48.69
   7  -9  -3  380.21   48.01
  -7  -9   3  379.36   53.41
  -7  -9   3  344.13   50.37
  -7  -9   3  354.07   45.62
   7  -9  -3  371.60   49.07
  -7  -9  -4   51.53    8.29
   7  -9   4   58.37    7.62
  -7  -9  -4    9.19   31.52
   7   9  -4   33.31   17.02
   7  -9   4   15.61   18.26
  -7  -9  -4   22.71   24.29
   7   9  -4   49.95    8.99
  -7  -9  -4   53.84   15.16
  -7  -9  -4   61.25    7.91
   7  -9  -4   45.26   15.01
  -7  -9   4   28.51   16.21
  -7   9  -4   18.97   11.62
   7  -9  -4   48.34   15.32
  -7  -9   4   59.49   14.35
  -7  -9   4   51.79    7.33
   7   9  -5  114.24   25.66
  -7  -9  -5  171.05   30.19
  -7  -9  -5  134.13   36.87
  -7  -9  -5   56.48   38.33
  -7  -9  -5  141.51   18.04
   7   9  -5  136.77   17.83
   7  -9   5  134.37   17.46
  -7  -9  -5  125.81   17.12
   7  -9  -5  101.03   25.67
  -7  -9   5  150.18   21.89
  -7  -9   5  102.28   28.33
  -7   9  -5  136.02   24.18
  -7  -9   5  123.84   17.12
   7  -9  -5  124.95   17.92
   7  -9  -5  111.51   24.81
   7  -9   6  106.40   14.88
  -7  -9  -6  108.06   17.93
  -7  -9  -6   91.91   14.32
   7   9  -6  114.58   15.01
  -7  -9  -6   58.20   36.29
  -7  -9  -6  134.98   28.64
   7   9  -6   86.21   23.36
  -7  -9  -6  135.17   42.60
  -7  -9   6  121.53   14.81
   7  -9  -6   96.23   15.14
  -7   9  -6   61.01   22.05
  -7  -9   6  127.51   23.48
   7  -9  -6  140.63   29.14
  -7  -9   6   68.46   27.31
   7   9  -7  134.65   31.49
   7  -9   7   88.04   39.34
   7   9  -7  138.09   18.22
  -7  -9  -7  165.74   34.43
  -7  -9  -7  177.87   25.65
  -7  -9  -7  116.71   17.38
  -7  -9  -7   77.08   42.63
  -7  -9   7  120.90   23.97
  -7   9  -7  103.48   26.99
  -7  -9   7  122.55   17.73
  -7  -9   7  104.71   36.01
   7  -9  -7  131.28   32.02
   7  -9  -7  143.30   18.77
  -7  -9  -8   42.78   15.44
  -7  -9  -8  -39.09   27.67
  -7  -9  -8   31.57   12.05
  -7  -9  -8   45.04    8.48
  -7  -9  -8  -44.65   38.20
   7   9  -8   23.35   20.86
   7  -9   8   94.68   44.33
   7   9  -8   35.52    8.75
  -7   9  -8   46.07    7.72
  -7  -9   8   39.69   12.13
  -7  -9   8   46.48    9.38
  -7   9  -8    7.68   20.93
  -7  -9   8  -45.29   27.88
   7  -9  -8   60.04   11.00
   7  -9  -8   47.56   27.13
   8   9   0    6.31    3.60
   8  -9   0   -0.05    4.73
   8   9   0   -9.15   11.65
   8  -9   0    1.68    2.03
  -8  -9   0    6.82    7.64
  -8  -9   0    2.64    9.01
   8   9   0   -3.09    2.13
   8  -9   1    5.02    1.51
  -8  -9  -1   -5.75   29.94
   8  -9   1   13.29    6.78
   8   9  -1    1.36   12.80
   8   9  -1    0.76    2.66
  -8  -9  -1    5.56    6.93
  -8  -9  -1    9.70    9.37
   8   9   1    5.71    3.06
  -8  -9   1   17.64    7.18
  -8  -9   1   -9.93    8.38
   8  -9  -1   -0.79    4.52
   8   9  -2   -9.56   12.24
   8  -9   2    0.60    1.61
   8  -9   2    3.88    5.69
  -8  -9  -2  -11.86   11.23
   8   9  -2    0.54    2.70
  -8  -9  -2   17.61    9.63
  -8  -9  -2  -21.46   32.09
   8   9   2    7.27    3.76
   8  -9  -2   -1.68    4.07
  -8  -9   2   -1.27    9.74
  -8  -9   2    1.47    4.57
   8  -9   3   -0.12    1.58
   8  -9   3    2.26   19.36
   8   9  -3   12.46   15.12
  -8  -9  -3   -5.23   15.44
   8   9  -3    3.65    2.98
  -8  -9  -3    6.53   34.71
  -8  -9  -3    7.24    7.13
  -8   9  -3   -8.57    6.85
   8  -9  -3    0.30    3.15
  -8  -9   3   15.27    6.97
  -8  -9   3    2.32   12.01
   8  -9   4    4.24    2.58
   8  -9   4  -16.18   21.24
   8   9  -4   -1.67   16.17
   8   9  -4    6.04    3.43
  -8  -9  -4    1.01    1.20
  -8  -9  -4   29.52   18.76
  -8  -9  -4    0.90    1.35
  -8  -9  -4   -0.74    6.61
  -8  -9  -4    4.30   32.11
  -8   9  -4   -4.74    9.38
  -8  -9   4    1.23    4.92
   8  -9  -4   -0.76    2.36
   8  -9  -4    1.30    9.34
   8  -9  -4   -1.73   10.40
   8  -9  -4    4.39    3.78
  -8  -9   4   29.71   16.96
  -8  -9  -5    0.10    1.63
   8  -9   5    0.83    3.07
  -8  -9  -5  -27.01   23.97
   8   9  -5    0.48    3.08
   8  -9   5  -12.34   27.91
  -8  -9  -5   -5.06    6.54
   8   9  -5  -26.10   15.27
  -8  -9  -5    0.39   33.28
  -8  -9   5    5.37    6.41
   8  -9  -5   -3.98   12.20
  -8  -9   5  -10.03   14.88
  -8   9  -5   -0.29   10.59
   8  -9  -5    0.17    3.06
   8  -9  -5   23.99   14.02
   8  -9   6    4.71    3.78
   8  -9   6  -10.92   34.78
   8   9  -6  -15.81   17.80
  -8  -9  -6    6.22   35.83
  -8  -9  -6   -7.57   26.10
   8   9  -6    3.81    3.67
  -8  -9  -6    4.43    2.33
  -8  -9  -6   -1.60    7.92
  -8  -9   6   28.38    9.19
   8  -9  -6    8.79    4.89
  -8  -9   6  -35.83   19.03
   8  -9  -6    3.78   15.33
  -8   9  -6  -19.35   12.30
   8  -9  -6  -10.45   15.46
   8  -9   7   24.71   40.16
   8   9  -7   18.62   21.39
  -8  -9  -7  -57.91   37.76
  -8  -9  -7    4.33    7.75
  -8  -9  -7   -1.16    2.35
  -8  -9  -7    2.65    3.76
  -8  -9  -7    0.97   38.16
   8   9  -7   -4.44    2.48
   8  -9  -7  -10.11   17.05
  -8  -9   7   -0.48   25.45
  -8   9  -7  -11.32   15.35
  -8  -9   7    6.36    6.37
   8  -9  -7    5.76    4.22
   8  -9  -7   15.80   19.25
  -8  -9  -8    1.57    2.87
   8   9  -8  -25.70   23.36
  -8  -9  -8  -40.27   31.35
   8   9  -8   -0.06    3.25
  -8  -9  -8    1.94    4.06
  -8  -9  -8    4.11   10.90
   8  -9  -8   21.06   26.13
  -8  -9   8   34.77   36.82
   8  -9  -8   -3.29    2.88
  -8  -9   8   -5.10    3.88
   9   9   0  125.92   18.77
   9  -9   0  119.03   16.65
   9  -9   0  172.76   30.07
  -9  -9   0  233.86   37.66
  -9  -9   0  155.90   25.75
  -9  -9  -1  194.68   35.89
   9  -9   1  167.57   18.98
  -9  -9  -1   58.77   44.93
  -9  -9  -1  129.55   26.02
   9   9  -1  147.15   20.77
   9   9  -1  144.16   30.25
  -9  -9   1   97.01   26.33
   9  -9  -1  165.83   24.33
   9   9   1  113.94   23.12
  -9  -9   1  163.74   32.36
   9   9  -2   12.21   17.71
   9  -9   2   32.69    5.04
  -9  -9  -2  108.32   40.99
   9   9  -2   41.18    8.00
  -9  -9  -2   38.09   16.49
  -9  -9  -2   41.36   12.41
  -9  -9   2   40.49   12.19
  -9  -9   2   35.15   14.53
   9   9   2   21.46    8.20
   9  -9  -2   46.29   12.56
  -9  -9  -3   -2.04   32.79
  -9  -9  -3  111.28   27.41
  -9  -9  -3  146.26   30.05
   9   9  -3   70.81   11.27
   9   9  -3   54.52   23.60
   9  -9   3   76.82   10.49
  -9  -9   3   53.53   20.91
  -9  -9   3  116.02   21.96
   9  -9  -3   84.55   17.06
   9   9  -4   48.17   22.54
  -9  -9  -4   67.30   20.00
   9  -9   4   65.89    9.43
  -9  -9  -4   89.01   31.20
  -9  -9  -4   12.55   35.85
   9   9  -4   71.81   10.20
   9  -9   4   67.05   31.94
  -9  -9   4   76.46   24.87
   9  -9  -4   72.77   14.16
   9  -9  -4   62.68   10.89
  -9   9  -4   40.19   13.69
  -9  -9   4   57.48   15.79
   9  -9   5   73.00   40.89
  -9  -9  -5  138.26   29.87
   9   9  -5   99.38   15.49
  -9  -9  -5   36.13   41.22
   9   9  -5   68.76   28.85
  -9  -9  -5  163.00   37.32
   9  -9   5  123.25   15.74
  -9  -9   5   56.94   27.39
   9  -9  -5  101.20   22.02
   9  -9  -5  124.12   15.91
  -9  -9   5  142.65   27.47
   9  -9  -5  109.66   20.98
  -9   9  -5  106.41   22.27
   9   9  -6   37.92   24.26
  -9  -9  -6   27.71   41.11
   9  -9   6   12.45   44.68
   9  -9   6   38.76   11.59
   9   9  -6   43.72    8.46
  -9  -9  -6   39.50   14.55
  -9  -9  -6    4.85   33.03
   9  -9  -6   44.61   19.54
   9  -9  -6   22.36    6.93
   9  -9  -6    1.42   17.41
  -9  -9   6   45.06   13.26
  -9   9  -6   40.88   17.08
  -9  -9   6   32.95   28.27
  10   9   0   12.27    4.43
 -10  -9   0   16.36   43.61
 -10  -9   0  -23.55   10.95
 -10  -9   0   21.76    9.09
  10  -9   0    7.60    2.16
 -10  -9  -1   -5.56    4.54
 -10  -9  -1   18.41   13.48
  10  -9   1    2.16    1.38
 -10  -9  -1   -7.42   38.21
  10   9  -1    5.88    3.68
 -10  -9   1   18.02   14.26
  10  -9  -1   -2.69    3.64
 -10  -9   1    0.01    6.85
  10   9   1    5.69    3.96
 -10  -9  -2    6.53    7.75
 -10  -9  -2  -16.84   12.78
  10   9  -2   21.70   19.26
  10  -9   2    4.40    1.98
 -10  -9  -2    4.52   36.47
  10   9  -2    3.94    3.56
 -10  -9   2   -7.19    4.71
 -10  -9   2   -7.40   15.94
  10   9   2    0.39    2.57
  10  -9  -2    6.51    6.40
  10  -9   3    3.89    2.63
  10   9  -3  -24.45   18.98
 -10  -9  -3    2.31   36.17
  10   9  -3    5.25    4.01
 -10  -9  -3   -1.38    4.77
 -10  -9  -3   13.42   17.69
  10  -9  -3    0.00    2.27
  10  -9  -3   -0.34    5.42
 -10  -9   3   10.07   17.99
 -10  -9   3   -3.61    5.37
 -10  -9  -4    0.42    6.86
  10   9  -4   14.73   23.06
  10  -9   4    1.97    3.17
 -10  -9  -4  -41.49   35.79
  10   9  -4   -2.41    2.94
 -10  -9  -4   22.44   24.08
 -10  -9   4   -2.13   20.53
  10  -9  -4   -0.96    2.66
  10  -9  -4    2.60    4.61
  10   9  -5   32.87   27.73
  10   9  -5   -0.24    2.90
 -10  -9  -5   28.79   31.46
 -10  -9  -5   -8.26    8.30
  10  -9   5    3.07    4.02
  10  -9  -5    0.12    3.17
 -10   9  -5    4.36   12.76
 -10  -9   5    8.45   25.39
 -10  -9   5    9.67    6.99
  11  -9   0   28.28    4.03
  11   9   0   35.88   10.24
 -11  -9   0   30.08   16.16
 -11  -9   0   14.36   14.00
 -11  -9   0   40.07   46.19
  11   9  -1   69.55   13.53
 -11  -9  -1   88.40   21.41
 -11  -9  -1   79.15   41.22
  11  -9   1   65.69    8.37
 -11  -9  -1   30.91   17.50
  11   9   1   48.03   13.31
 -11  -9   1   49.01   19.98
 -11  -9   1   70.01   19.97
 -11  -9   1   36.43   49.48
 -11  -9  -2   41.14   17.48
 -11  -9  -2   35.53   17.34
  11  -9   2   39.36    5.99
  11   9  -2   39.61    9.88
 -11  -9  -2   42.07   43.69
 -11  -9   2   18.43   20.27
 -11  -9   2   65.47   20.04
  11   9  -3   31.91   25.39
   0  10  -1  556.83   73.54
   0 -10  -1  707.73   77.98
   0 -10   1  594.34   73.54
   0 -10  -1  518.42   71.14
   0 -10   1  642.39   70.38
   0  10   1  560.14   74.09
   0  10  -1  477.11   70.39
   0  10  -2 1053.86  149.72
   0 -10   2 1185.22  150.44
   0  10  -2 1206.54  147.19
   0 -10   2 1313.39  146.94
   0 -10   3  823.94   94.46
   0 -10  -3  615.24  100.92
   0 -10  -3  655.31   92.29
   0 -10  -3  642.27   87.15
   0  10  -3  718.89   86.56
   0  10  -3  809.75   93.05
   0 -10   3  691.01   86.34
   0  10  -4 1143.65  143.69
   0 -10  -4 1167.06  140.35
   0 -10  -4 1096.90  154.86
   0 -10  -4 1172.63  146.70
   0  10  -4 1119.20  139.37
   0 -10   4 1116.83  139.38
   0  10  -5   63.93    9.97
   0 -10   5   82.73   10.32
   0  10  -5   64.30   15.15
   0 -10  -5   56.45   24.20
   0 -10  -5   60.90   12.43
   0 -10  -5   67.55   10.83
   0 -10   5   79.45   19.87
   0  10  -6   48.82    8.42
   0 -10   6   16.36   19.33
   0 -10  -6   50.49    9.79
   0 -10   6   38.69    8.40
   0 -10  -6   54.73   32.72
   0 -10  -6   59.69   10.42
   0  10  -6   26.30   10.34
   0  10   6   22.58   27.62
   0 -10  -7   18.69   26.85
   0 -10   7   31.01   16.51
   0  10  -7   13.57   12.53
   0  10  -7   35.15    7.57
   0 -10  -7   41.18    9.30
   0 -10   7   58.60   10.09
   0  10   7   60.18   71.00
   0  10  -8  165.92   22.40
   0  10  -8  294.66   48.32
   0 -10   8  121.34   34.70
   0  10   8  145.67   64.29
   0 -10  -8  158.20   23.49
   0 -10  -8  203.91   49.52
   0  10  -9  115.18   15.98
   0  10   9  -10.51   47.52
   0 -10   9   81.52   36.35
   0 -10  -9  106.40   19.84
   0  10  -9  188.91   51.82
   0 -10 -10   87.73   15.47
   0  10  10   18.37  123.77
   0 -10 -10   46.59   28.97
   0  10 -10   38.22   21.25
   0 -10  10   73.95   40.79
   0 -10  11   64.01   51.60
   0 -10 -11   23.87    8.28
   0  10 -11  -28.72   27.59
   0  10  11   -2.50   82.22
   0  10 -11   24.89    6.96
   0 -10 -11    0.03   31.62
   1  10   0   11.10    6.17
  -1  10   0   14.40    6.28
   1 -10   0    0.60    5.28
  -1 -10   0    4.53    2.68
  -1 -10   0   -2.36    5.49
   1  10   0    1.55    2.86
  -1  10   0    4.94    2.68
   1 -10   0   -0.83    2.12
  -1  10   1   -8.40    4.49
  -1 -10  -1   -0.51    2.19
   1  10  -1   -0.54    2.46
   1 -10   1   -5.11    3.83
   1  10  -1   13.90   11.86
  -1 -10  -1   -2.53    7.51
   1 -10   1    0.73    1.75
   1  10   1   10.47   10.37
   1 -10  -1   -0.09    3.24
   1 -10  -1   -7.98    4.38
  -1 -10   1    0.13    1.78
   1  10   1   -0.61    2.63
  -1 -10   1    2.75    4.49
  -1  10  -1    4.93    5.68
  -1  10  -1   -4.16    1.89
   1 -10   2    4.16    2.26
   1  10  -2    0.37    5.20
   1 -10   2   -1.55    4.23
  -1 -10  -2    6.66    7.45
   1  10  -2    4.06    2.88
  -1 -10  -2    3.44    3.22
  -1 -10  -2   -2.21    2.51
   1  10   2    2.71    5.85
  -1 -10   2   -7.80    5.99
   1 -10  -2    6.81    6.47
  -1  10  -2    0.15    2.03
  -1  10  -2    0.32    4.45
   1 -10  -2    5.50    4.14
  -1 -10   2    0.32    1.85
  -1 -10  -3   -1.29    7.57
  -1 -10  -3    3.14    2.85
   1 -10   3    7.89    6.93
  -1 -10  -3   -2.20    3.19
   1 -10   3   -1.05    1.57
   1  10  -3    3.88    2.73
   1  10  -3   13.76    7.05
  -1 -10  -3    1.98   28.92
   1 -10  -3    1.03    2.05
  -1 -10   3    3.98    4.76
  -1  10  -3   -5.83    5.53
   1 -10  -3   -2.50    6.18
  -1  10  -3   -2.02    1.62
   1 -10  -3  -26.62   14.71
  -1 -10   3   -1.01    1.66
  -1 -10  -4   -0.28    4.36
  -1 -10  -4   18.02   19.60
  -1 -10  -4   -1.55    2.76
   1  10  -4    1.41    2.05
  -1 -10  -4   17.13   14.84
   1 -10   4   -5.24    7.33
   1 -10   4   -0.96    1.88
   1  10  -4   -2.32    5.56
  -1 -10   4    1.45    7.08
  -1 -10   4   -1.25    1.76
  -1  10  -4    1.88    2.09
   1 -10  -4    1.99    2.63
  -1  10  -4   -3.05    7.81
   1 -10  -4   -5.62   16.77
   1 -10  -4   -5.38    7.18
   1  10  -5    1.63    2.29
  -1 -10  -5   -1.17    3.05
   1  10  -5   -4.98    6.01
   1 -10   5   -0.86    2.02
  -1 -10  -5   -1.95    2.42
  -1 -10  -5   49.32   31.19
   1 -10   5   28.48   12.03
  -1  10  -5    0.94    2.30
  -1  10  -5   -6.01    5.47
  -1 -10   5    7.65    9.37
   1 -10  -5    2.57    3.35
  -1 -10   5    1.06    2.24
   1 -10  -5   31.84   19.64
   1  10   5   -2.47    2.59
   1  10  -6    4.51   13.07
   1 -10   6  -10.66   12.68
  -1 -10  -6   -0.67    3.23
  -1 -10  -6    4.55    3.82
   1  10  -6   -0.56    1.79
   1 -10   6   -0.03    2.13
  -1 -10  -6    3.22   22.50
  -1  10   6   37.81   30.10
  -1  10  -6   -4.41    8.01
   1 -10  -6    1.44   25.09
   1  10   6    1.48    3.28
  -1 -10   6   -0.23   11.13
  -1  10  -6   -2.25    1.92
   1 -10  -6   -2.50    2.48
  -1 -10   6    0.05    2.49
  -1 -10  -7    5.99    4.48
   1  10  -7  -20.73   13.19
   1 -10   7   -0.41    2.43
  -1 -10  -7   -6.13   23.72
   1  10  -7    0.18    2.31
  -1 -10  -7   -1.62    3.62
  -1  10   7   50.96   37.25
   1 -10   7    3.84   16.18
  -1 -10   7   -1.05    2.83
   1 -10  -7   15.17   23.09
   1 -10  -7    3.21    3.78
   1  10   7    5.16   33.04
   1  10   7    1.65    3.87
  -1 -10   7   -9.20   14.83
  -1  10  -7   -7.04   10.50
  -1  10  -7    1.80    2.61
  -1 -10  -8    3.07    4.98
   1  10  -8    5.31   11.52
   1 -10   8    4.32   18.99
  -1  10   8  171.50   87.36
  -1 -10  -8   -4.35   29.22
   1  10  -8    2.48    3.21
   1 -10  -8   43.27   55.68
   1  10   8    3.56    4.56
  -1 -10   8   10.91   19.34
  -1  10  -8    4.31    3.62
   1 -10  -8    0.46    3.80
  -1  10  -8   -8.52   14.98
   1  10   8  -37.98   37.73
   1 -10   9    4.36   24.85
  -1 -10  -9  -17.82   29.51
   1  10  -9   -0.33    3.57
  -1  10   9  -39.67   69.34
  -1 -10  -9    1.10    3.48
   1  10  -9  -43.74   20.52
  -1  10  -9   -2.04   15.98
   1  10   9  -43.93   44.46
  -1  10  -9    3.01    3.87
   1 -10  -9   15.01   30.57
   1 -10  -9    7.94    5.21
   1  10   9    2.64    5.34
  -1 -10   9   40.78   27.81
   1 -10  10   -5.37   33.60
  -1  10  10  -10.45   61.03
   1  10 -10   24.91   21.91
  -1 -10 -10    7.54   76.21
   1  10 -10    1.36    3.77
  -1 -10 -10    3.92    4.38
  -1 -10  10    5.42   33.32
   1 -10 -10   -0.51    3.50
   1  10  10  -74.09  140.89
  -1  10 -10   10.47   20.68
   1 -10 -10   43.20   40.41
  -1  10 -10    2.72    3.99
   1  10  10    1.53    5.38
   1  10 -11   -1.44    3.55
   1  10 -11  -37.73   34.88
  -1  10  11   54.14   81.07
  -1 -10 -11    5.83   35.67
  -1 -10 -11    2.05    4.94
  -1 -10  11    5.75   43.95
  -1  10 -11   -0.14   34.34
   1 -10 -11    0.99    4.64
   1  10  11  -77.78   78.67
  -1  10 -11    2.88    4.22
   1  10  11    1.44    4.22
   1 -10 -11  -33.09   42.79
   2  10   0 1034.58  133.71
   2 -10   0 1123.53  135.82
  -2  10   0 1098.80  136.24
  -2 -10   0 1144.30  133.16
   2 -10   0 1056.21  133.47
   2  10   0 1047.98  137.04
  -2  10   1  358.72   55.14
   2  10  -1  408.92   52.67
  -2 -10  -1  484.67   58.07
   2  10  -1  368.53   55.88
   2 -10   1  401.09   54.82
  -2 -10  -1  429.01   54.19
   2 -10   1  447.47   52.44
  -2 -10  -1  415.06   52.97
   2 -10  -1  466.44   56.30
  -2  10  -1  420.22   55.41
   2  10   1  384.56   56.39
  -2 -10   1  442.85   52.19
   2 -10   2 1397.45  183.20
  -2 -10  -2 1391.30  181.57
  -2 -10  -2 1494.53  182.18
   2  10  -2 1493.18  180.33
  -2 -10  -2 1549.66  186.64
  -2  10  -2 1445.99  183.04
  -2 -10   2 1528.56  180.00
   2 -10  -2 1489.06  184.45
  -2 -10  -3  237.21   33.25
   2  10  -3  246.94   35.07
   2 -10   3  277.49   30.61
  -2 -10  -3  223.43   32.52
  -2 -10  -3  205.75   50.33
   2  10  -3  248.55   30.71
   2 -10   3  228.28   35.08
  -2  10  -3  213.38   30.56
  -2  10  -3  233.56   34.04
   2 -10  -3  255.72   48.25
   2 -10  -3  240.72   36.06
  -2 -10   3  256.63   30.58
   2  10   3  226.32   32.11
   2  10  -4  458.30   56.74
  -2 -10  -4  470.45   59.12
  -2 -10  -4  395.56   59.59
   2  10  -4  416.64   60.85
  -2 -10  -4  487.43   66.41
   2 -10   4  481.66   56.72
  -2 -10  -4  528.51   77.83
   2 -10   4  519.95   63.85
  -2  10  -4  448.38   56.69
  -2 -10   4  409.51   62.28
   2 -10  -4  420.05   62.56
   2 -10  -4  449.78   76.12
  -2 -10   4  499.61   56.87
  -2  10  -4  463.53   61.01
   2  10   4  411.39   58.10
  -2 -10  -5  185.24   31.79
   2  10  -5  225.57   28.73
   2  10  -5  219.58   34.83
  -2 -10  -5  213.14   30.88
  -2 -10  -5  221.08   43.69
   2 -10   5  240.24   28.86
  -2 -10  -5  182.28   47.24
  -2 -10  -5  241.80   29.97
   2 -10   5  205.30   38.30
  -2 -10   5  171.29   36.50
  -2 -10   5  236.51   28.94
   2 -10  -5  226.43   45.29
  -2  10  -5  235.54   28.69
   2  10   5  204.69   30.19
  -2  10  -5  234.62   34.65
   2 -10   6  294.35   38.03
  -2 -10  -6  303.35   40.42
   2  10  -6  293.55   37.88
   2 -10   6  333.99   49.55
   2  10  -6  303.86   44.81
  -2 -10  -6  278.71   38.77
  -2 -10  -6  288.11   66.60
   2 -10  -6  203.68   51.11
   2  10   6  302.94   39.64
  -2  10  -6  297.68   37.74
  -2 -10   6  307.22   38.17
   2 -10  -6  278.85   38.78
  -2 -10   6  506.09   72.86
  -2  10  -6  325.40   45.62
   2  10  -7  150.70   31.01
  -2 -10  -7  125.31   42.81
   2  10  -7  151.45   18.40
  -2 -10  -7  131.87   20.68
   2 -10   7   97.60   33.43
  -2  10   7   39.37   35.02
   2 -10   7  150.72   18.71
  -2 -10  -7  114.27   18.89
  -2 -10   7  149.03   18.67
  -2 -10   7   91.18   27.39
   2 -10  -7  108.56   18.69
   2  10   7  137.20   20.01
  -2  10  -7  124.98   17.90
  -2  10  -7  166.38   30.37
   2 -10  -7  211.50   44.38
   2 -10   8  221.58   42.16
  -2  10   8   36.17   47.64
  -2 -10  -8  218.10   60.54
   2  10  -8  106.80   25.16
   2  10  -8  136.77   20.19
  -2 -10  -8  132.05   21.18
   2  10   8  293.98   93.96
   2  10   8  181.39   22.87
  -2  10  -8  139.31   29.92
   2 -10  -8  148.87   43.04
  -2  10  -8  156.12   20.29
   2 -10  -8  163.61   21.88
   2 -10   9   18.48   30.44
  -2 -10  -9   31.37   64.90
  -2 -10  -9   26.64    7.69
   2  10  -9   13.25   16.11
  -2  10   9  -15.47   45.01
   2  10  -9   20.34    6.48
  -2 -10   9   42.19   27.09
   2 -10  -9    9.03   38.04
  -2  10  -9   19.05    5.94
  -2  10  -9   -0.63   19.00
   2 -10  -9   28.03    8.49
   2  10   9   35.00   10.00
   2  10   9  171.78   80.64
  -2 -10 -10   84.21   15.21
  -2 -10 -10   81.15   47.17
   2 -10  10   -7.19   33.59
  -2  10  10  -20.35   56.44
   2  10 -10   61.82   12.56
   2  10 -10   20.29   22.41
   2  10  10   75.51   15.79
  -2  10 -10   67.23   30.93
   2 -10 -10   70.06   14.05
   2  10  10  -11.99   69.98
   2 -10 -10   16.75   41.38
  -2 -10  10   51.26   34.10
  -2  10 -10   74.34   12.40
  -3 -10   0   -5.41    5.69
   3 -10   0   -1.37    4.64
   3  10   0    3.27   11.56
   3 -10   0    5.68    2.79
  -3 -10   0    2.89    2.98
   3  10   0    2.32    2.94
  -3  10   0   -7.97    4.33
  -3 -10   0    5.77    2.66
  -3 -10  -1    3.56    3.86
  -3  10   1    2.98    5.37
   3 -10   1    0.57    4.77
   3  10  -1   -2.88    1.97
  -3 -10  -1  -15.03    5.88
  -3 -10  -1    0.84    1.74
   3 -10   1    1.46    1.89
   3  10  -1   -1.47    5.82
   3 -10  -1    0.80    2.93
   3  10   1   -1.71    6.86
  -3  10  -1    1.10    4.61
   3 -10  -1   -1.78    5.29
  -3 -10   1  -10.34    4.97
  -3 -10   1    0.65    1.82
   3  10   1    3.68    2.92
  -3 -10   1   -2.07    2.42
  -3 -10  -2    2.16    3.65
   3 -10   2    0.12    1.56
   3  10  -2   -6.38    5.64
   3  10  -2    1.81    2.12
  -3 -10  -2    5.19    2.70
  -3 -10  -2   -2.37    6.28
   3 -10   2   -2.70    4.46
  -3  10  -2   -0.52    4.50
   3 -10  -2   -7.11   14.90
  -3  10  -2    6.42    2.63
   3  10   2   -0.21    2.17
   3 -10  -2    3.73    5.82
  -3 -10   2   -0.84    5.18
  -3 -10   2    0.94    1.86
   3  10   2    3.04    3.33
   3 -10   3    2.98    2.14
  -3 -10  -3   22.49   23.79
  -3 -10  -3   -3.02    2.98
   3 -10   3   -1.30    6.35
  -3 -10  -3   -0.71   11.12
   3  10  -3    0.57    2.01
  -3 -10  -3   -4.14    2.45
   3  10  -3   -2.02    5.56
   3 -10  -3    5.29    7.48
   3  10   3    0.10    2.90
   3 -10  -3   -8.45   14.92
  -3 -10   3   -7.37    4.22
  -3  10  -3    5.80    5.96
  -3 -10   3    0.04    1.76
  -3  10  -3   -0.99    1.71
   3 -10   4   17.68   10.48
   3  10  -4   11.49    7.91
  -3 -10  -4    2.06    4.17
   3  10  -4    2.14    2.41
  -3 -10  -4    0.60    2.76
  -3 -10  -4   10.19   11.69
  -3 -10  -4    0.95    5.04
  -3 -10  -4   21.69   37.60
   3 -10   4   -0.61    1.48
  -3  10  -4   -4.18    5.98
  -3 -10   4    0.26    7.55
  -3 -10   4    1.69    2.09
   3 -10  -4    2.89    9.07
   3 -10  -4   -7.14   16.01
  -3  10  -4    1.96    2.61
   3  10   4   -0.91    2.54
   3  10  -5   -0.26    7.95
   3 -10   5   -2.37    2.13
  -3 -10  -5    4.02    6.79
  -3 -10  -5   -1.10    3.83
  -3 -10  -5   -3.11    2.91
   3 -10   5   -5.01   10.71
  -3 -10  -5   -2.13   22.72
  -3 -10  -5   15.57   13.09
   3  10  -5    2.88    2.75
  -3 -10   5    4.13    3.08
  -3  10  -5    1.35    2.40
  -3  10  -5    1.44    8.00
   3 -10  -5   -0.51   16.90
   3  10   5   -4.72    2.79
  -3 -10   5    0.09    9.67
  -3  10   6  -15.92   27.27
   3 -10   6   49.85   19.27
  -3 -10  -6    2.57    5.04
   3  10  -6    1.94    3.02
   3 -10   6    1.63    2.80
  -3 -10  -6    6.41    4.50
   3  10  -6    3.19   12.05
  -3 -10  -6    3.12   26.57
  -3 -10  -6    3.63    7.12
  -3 -10   6    0.04    2.93
   3 -10  -6   15.93   19.31
  -3  10  -6   -1.26    2.18
  -3 -10   6   -5.49   12.34
   3 -10  -6    0.16    3.18
  -3  10  -6   -7.29    9.40
   3  10   6   -2.96    3.28
   3  10  -7  -12.94    9.54
   3 -10   7   11.73    4.50
   3  10  -7    7.22    4.18
  -3 -10  -7   12.13   46.68
  -3 -10  -7    7.58    8.20
  -3  10   7  -53.80   29.95
  -3 -10  -7    3.41    4.18
  -3 -10  -7   -3.72    5.15
   3 -10   7  -23.35   16.77
  -3 -10   7  -33.92   20.56
   3  10   7    2.65    6.03
  -3  10  -7    6.64    3.55
  -3  10  -7  -12.03   11.53
  -3 -10   7   -1.40    2.81
   3 -10  -7    6.80    4.00
   3 -10  -7    0.05   21.79
   3  10  -8   -1.94    2.63
   3  10  -8  -14.00   13.81
  -3 -10  -8    2.07    3.66
  -3 -10  -8    0.83    4.32
  -3 -10  -8   55.10   36.83
  -3  10   8   13.62   37.09
   3 -10   8   13.07   21.36
  -3  10  -8   -0.21    2.61
  -3  10  -8    4.67   13.41
   3  10   8   -0.40    4.86
  -3 -10   8   27.11   22.80
   3 -10  -8  -18.21   19.02
   3 -10  -8    3.64    4.44
  -3 -10  -9   -3.58    3.06
   3  10  -9   20.60   19.53
   3 -10   9  -13.14   25.08
  -3 -10  -9    5.31   31.50
   3  10  -9    1.87    3.16
  -3  10   9  -21.83   50.23
   3 -10  -9  -24.77   23.61
  -3 -10   9   23.54   35.98
   3 -10  -9    3.23    3.54
  -3  10  -9   -4.20    2.47
  -3  10  -9   29.23   21.99
   3  10   9    4.09    6.92
  -3 -10 -10   21.22   37.43
   3 -10  10  -35.80   43.49
   3  10 -10   23.36   23.98
  -3 -10 -10    0.86    4.10
   3  10 -10    5.39    4.21
  -3  10  10   -4.09   63.88
   3 -10 -10   -5.50    3.18
   3  10  10  -90.14   62.22
  -3  10 -10    5.37    4.00
  -3  10 -10   -6.13   24.76
   3 -10 -10   48.61   29.41
  -3 -10  10  -23.74   30.67
   3  10  10    3.91    7.40
   4  10   0  962.37  120.52
  -4 -10   0 1001.12  124.75
   4 -10   0  878.27  119.87
   4  10   0  932.31  124.29
  -4  10   0  944.58  122.08
  -4 -10   0  985.21  119.41
  -4 -10   0 1054.54  122.95
   4 -10   0 1067.16  121.89
   4 -10   1  260.10   32.75
  -4 -10  -1  244.81   30.12
   4  10  -1  255.21   35.55
   4 -10   1  228.20   29.99
  -4 -10  -1  186.49   34.65
  -4 -10  -1  220.20   32.72
   4  10  -1  214.49   30.36
   4  10   1  217.82   37.88
  -4 -10   1  257.15   29.80
  -4 -10   1  233.08   32.72
  -4  10  -1  239.67   33.10
   4 -10  -1  249.27   33.06
  -4 -10   1  242.40   34.63
   4 -10   2  462.73   56.17
   4 -10   2  461.21   60.00
   4  10  -2  412.88   60.87
   4  10  -2  445.52   56.56
  -4 -10  -2  476.60   57.14
  -4 -10  -2  493.43   64.18
   4  10   2  443.96   58.96
   4 -10  -2  459.09   68.02
  -4 -10   2  477.43   61.30
  -4 -10   2  463.66   56.17
  -4 -10   2  414.47   58.81
   4 -10  -2  444.46   59.98
  -4  10  -2  444.73   59.21
  -4 -10  -3  143.59   40.75
  -4 -10  -3  159.20   20.32
  -4 -10  -3  112.74   16.55
  -4 -10  -3  116.62   27.87
   4  10  -3  114.50   21.51
   4  10  -3  120.63   16.14
   4 -10   3  153.33   24.47
  -4 -10  -3  145.97   17.97
   4 -10   3  125.47   15.80
  -4 -10   3  121.71   15.90
   4 -10  -3  125.65   22.65
  -4  10  -3   95.82   15.67
   4 -10  -3  192.52   36.17
   4  10   3  123.80   18.50
  -4  10  -3   98.31   19.79
  -4 -10   3  148.68   25.86
  -4 -10   3  108.48   18.33
  -4 -10  -4  346.94   44.39
  -4 -10  -4  216.60   30.24
   4 -10   4  226.11   39.55
   4 -10   4  252.01   29.52
   4  10  -4  226.39   29.64
  -4 -10  -4  206.82   50.95
  -4 -10  -4  257.56   32.59
  -4 -10  -4  210.17   32.93
   4  10   4  198.00   31.68
  -4  10  -4  222.93   29.51
  -4 -10   4  227.03   36.64
  -4 -10   4  246.84   29.70
  -4  10  -4  207.60   33.56
   4 -10  -4  231.95   35.57
   4 -10  -4  289.58   47.08
  -4 -10  -5  195.14   41.16
  -4 -10  -5  170.30   26.39
   4 -10   5  164.89   22.48
  -4 -10  -5  189.02   26.56
   4  10  -5  159.01   30.72
   4  10  -5  181.75   22.80
  -4 -10  -5  193.01   49.34
  -4 -10  -5  158.42   23.26
   4 -10   5  157.88   33.19
  -4  10  -5  168.52   22.47
   4 -10  -5  265.80   45.56
   4  10   5  168.27   25.20
  -4 -10   5  188.47   22.94
  -4  10  -5  191.93   30.79
  -4 -10   5  113.77   30.28
  -4 -10  -6  316.55   39.90
   4  10  -6  301.62   46.33
  -4 -10  -6  325.39   43.66
   4 -10   6  329.73   39.19
  -4 -10  -6  208.22   47.56
  -4 -10  -6  304.18   43.15
  -4 -10  -6  368.30   68.70
   4 -10   6  262.48   51.23
   4  10  -6  311.11   39.06
   4  10   6  318.07   42.10
   4 -10  -6  307.75   39.91
  -4  10  -6  296.49   38.67
  -4 -10   6  302.41   39.20
   4 -10  -6  322.12   54.88
  -4  10  -6  272.27   45.44
   4 -10   7   58.81   27.20
  -4 -10  -7   53.44   16.97
   4 -10   7   71.49   11.76
   4  10  -7   70.34   11.42
   4  10  -7   41.19   17.24
  -4 -10  -7   78.83   13.21
  -4 -10  -7   56.32   14.95
  -4 -10  -7  -23.07   29.26
  -4 -10   7   17.73   19.61
   4  10   7   76.74   16.41
   4 -10  -7   89.80   30.64
  -4  10  -7   59.31   10.69
  -4  10  -7   39.72   17.28
   4 -10  -7   54.94   11.77
  -4 -10   7   82.07   12.71
   4  10  -8  119.64   26.27
   4  10  -8  118.56   15.62
   4 -10   8   33.00   28.78
  -4 -10  -8   60.14   46.77
  -4  10   8  128.27   51.54
  -4 -10  -8  132.27   24.00
  -4  10  -8  152.97   32.51
  -4 -10   8  113.94   19.95
  -4  10  -8   89.87   14.69
  -4 -10   8  138.05   61.98
   4  10   8  142.14   25.20
   4 -10  -8   94.63   37.55
   4 -10  -8  101.14   15.92
   4 -10   9  -10.06   29.19
   4  10  -9   50.13   10.48
  -4  10   9    6.47   50.23
  -4 -10  -9   75.34   12.44
  -4 -10  -9   30.13   71.95
   4  10  -9   62.06   23.26
   4 -10  -9   34.09   30.60
   4  10   9   35.34   16.38
  -4 -10   9  -16.57   27.52
   4 -10  -9   69.63   12.97
  -4  10  -9   52.58    9.95
  -4  10  -9   37.75   20.73
  -4 -10 -10   86.42   15.49
  -4 -10 -10   48.66   47.85
   4  10 -10  104.36   29.96
   4 -10  10   73.41   50.25
   4  10 -10   81.11   14.80
  -4  10  10   14.67   64.12
   4 -10 -10   67.12   33.57
  -4  10 -10   79.55   13.65
   4 -10 -10   92.86   15.84
  -4 -10  10   24.40   34.21
  -4  10 -10    7.11   24.65
   5 -10   0    3.07    2.45
   5 -10   0    5.21    4.68
  -5 -10   0   -9.00    6.55
   5 -10   0   -7.70    4.46
  -5  10   0   -0.19    5.57
   5  10   0   -1.30    2.27
  -5 -10   0    4.68    4.29
   5  10   0   14.09    9.76
  -5 -10   0   -0.12    1.32
  -5 -10  -1    1.31    1.86
   5 -10   1    2.66    5.70
   5 -10   1    1.77    1.38
  -5 -10  -1    9.38    9.90
   5 -10   1    2.39    4.38
  -5 -10  -1    3.09    3.82
   5  10  -1    0.81    2.51
   5  10  -1    3.48    7.71
  -5 -10   1    1.07    1.84
  -5 -10   1    3.82    7.13
  -5 -10   1    4.61    5.23
  -5  10  -1   -0.28    5.92
   5  10   1   -2.04    2.47
   5 -10  -1   13.23   16.16
   5  10   1    1.64    2.99
   5  10   1  -11.35    7.84
   5 -10  -1   -8.22    5.10
   5 -10  -1    2.82    3.77
   5  10  -2    1.99    2.53
  -5 -10  -2    4.97    2.68
   5  10  -2   -2.97    7.93
   5 -10   2  -13.44    6.52
  -5 -10  -2    3.62    4.74
  -5 -10  -2   -1.57    2.22
   5 -10   2    4.68    1.84
   5 -10  -2    5.17    6.86
   5  10   2   -1.55    2.92
  -5  10  -2    5.90    6.43
  -5 -10   2    0.62    1.87
   5 -10  -2   -1.98    2.69
   5  10   2    1.99    2.65
  -5 -10   2    5.87    4.88
  -5 -10   2   -2.12    6.43
   5 -10   3  -10.41    8.61
   5  10  -3    0.47    2.02
  -5 -10  -3   -2.87    4.57
   5 -10   3    2.55    4.91
   5 -10   3    2.97    1.92
  -5 -10  -3    8.17    2.58
  -5 -10  -3    5.30   27.77
   5  10  -3    4.94    8.47
  -5 -10  -3   -0.56    2.42
   5 -10  -3   10.22    8.08
   5  10   3    2.25    4.90
  -5  10  -3    1.95    6.60
  -5 -10   3   -1.41    2.91
   5 -10  -3    5.91   14.29
  -5 -10   3    2.34    2.33
   5 -10  -3    0.17    3.01
   5 -10   4    5.55    3.97
   5  10  -4   -2.82    8.31
  -5 -10  -4  -11.97   27.08
   5 -10   4   -0.38    1.90
  -5 -10  -4   -2.32    2.79
  -5 -10  -4   -0.08    4.30
  -5 -10  -4   14.32    4.54
   5  10  -4    3.37    2.72
   5 -10   4    2.09   10.72
  -5 -10  -4   -2.50   13.67
  -5  10  -4    2.13    7.54
   5  10   4    3.99    5.83
  -5 -10   4    4.83    3.07
   5 -10  -4    3.45   15.41
  -5 -10   4    7.32    5.98
  -5  10  -4    3.98    1.61
   5 -10  -4   13.83    9.97
   5 -10   5    6.33   14.86
  -5 -10  -5   10.05   16.07
  -5 -10  -5   -8.61   26.19
   5  10  -5    6.50   10.68
  -5 -10  -5    1.77    3.69
   5 -10   5    3.52    2.81
  -5 -10  -5   14.86    6.88
  -5 -10  -5   -8.53    3.93
   5 -10   5    7.00    8.50
   5  10  -5    1.53    2.60
  -5  10  -5    0.19    2.30
  -5  10  -5   -2.04    7.92
  -5 -10   5    3.70   12.23
  -5 -10   5    6.73    5.10
  -5 -10   5    0.11    2.84
   5  10   5    7.12    6.37
   5 -10  -5    4.45   15.14
   5 -10  -5   14.43   10.85
  -5 -10  -6    1.59    3.15
  -5 -10  -6  -41.19   28.70
   5  10  -6   13.94   13.66
  -5 -10  -6  -12.26   14.51
   5  10  -6   -0.93    2.44
  -5 -10  -6    1.04    5.20
  -5 -10  -6   -4.08    4.75
   5 -10   6   15.58   18.48
   5 -10   6   -0.56    2.72
   5 -10  -6   -1.05   16.99
   5 -10  -6   -1.79    2.83
  -5 -10   6    8.67   14.07
  -5 -10   6    0.89    2.69
  -5  10  -6   11.82   10.74
  -5 -10   6   10.04    5.49
  -5  10  -6    5.84    3.32
   5  10   6   -3.30    5.05
  -5 -10  -7   17.33   20.50
  -5 -10  -7   10.45    7.95
   5  10  -7    5.69    3.74
  -5 -10  -7   40.21   33.86
  -5 -10  -7    0.73    3.60
   5  10  -7    0.46   14.49
   5 -10   7    2.14   23.51
  -5 -10  -7    6.99    8.33
   5 -10  -7  -15.01   16.70
  -5  10  -7    1.23   13.97
  -5 -10   7   -0.22    3.49
  -5 -10   7   36.74   23.37
  -5  10  -7    3.80    3.25
   5  10   7    2.65    6.19
   5 -10  -7    0.55    3.49
  -5  10   8   25.90   45.88
  -5 -10  -8   28.65   25.78
   5  10  -8   -8.56   15.98
   5 -10   8  -23.94   25.81
  -5 -10  -8   23.29   41.84
   5  10  -8    2.32    3.73
  -5 -10  -8    3.54    6.73
  -5 -10  -8   -0.47    3.64
  -5  10  -8    6.64    3.63
  -5  10  -8  -14.07   16.39
  -5 -10   8    7.21    4.88
  -5 -10   8  -16.61   23.36
   5 -10  -8   26.25   23.89
   5 -10  -8    4.09    4.32
  -5  10   9 -157.13   76.64
   5  10  -9    0.00    3.56
  -5 -10  -9  -25.70   44.22
  -5 -10  -9    7.73    5.40
   5  10  -9  -19.80   19.22
   5 -10   9  -11.59   39.75
   5 -10  -9    4.43    4.94
  -5  10  -9    4.96    3.72
   5 -10  -9   41.55   24.77
  -5  10  -9  -20.14   18.92
  -5 -10   9  -24.83   29.60
   5  10 -10    7.13   24.62
  -5 -10 -10   10.96    5.19
  -5  10  10  -14.57   72.23
   5  10 -10   -0.54    3.76
   5 -10  10   54.46   58.05
  -5 -10 -10  -32.76   44.03
  -5  10 -10  -57.92   24.60
   5 -10 -10    3.15    4.31
  -5  10 -10   -3.50    3.08
  -5 -10  10   -7.79   42.30
   5 -10 -10   29.80   33.62
  -6 -10   0   90.70   19.19
   6  10   0   43.97   14.46
  -6 -10   0   41.98    6.80
   6  10   0   57.51   10.57
  -6 -10   0   27.96   11.81
   6 -10   0   67.30    9.72
   6 -10   0   68.25   14.60
   6 -10   0   67.39   11.28
  -6 -10  -1   11.41    7.12
   6  10  -1   -6.56    8.95
   6 -10   1   13.92    7.39
   6 -10   1    5.57    7.20
  -6 -10  -1    8.68    3.18
   6 -10   1   11.16    3.08
  -6 -10  -1   13.54   10.14
   6  10  -1    5.56    3.30
  -6 -10  -1   13.47    2.93
  -6 -10   1   10.20    5.63
  -6  10  -1   14.81    7.29
   6 -10  -1    2.54    5.41
   6  10   1   -6.47   10.31
   6 -10  -1    6.10    5.55
  -6 -10   1   -5.01    6.54
   6 -10  -1  -16.80   12.56
   6  10   1   10.80    4.57
   6  10   1    5.82    5.52
  -6 -10   1    7.44    2.38
  -6 -10  -2  305.32   69.42
   6  10  -2  343.29   41.44
  -6 -10  -2  303.41   41.00
   6 -10   2  288.46   44.77
  -6 -10  -2  348.93   46.25
   6  10  -2  291.32   46.96
   6 -10   2  349.98   45.48
   6 -10   2  344.58   40.63
  -6 -10  -2  348.80   40.77
  -6 -10  -2  285.52   48.60
   6 -10  -2  317.26   42.91
  -6 -10   2  327.14   44.98
  -6 -10   2  326.80   40.59
  -6  10  -2  303.49   43.66
   6 -10  -2  309.61   48.00
  -6 -10   2  348.74   46.96
  -6 -10  -3  204.44   24.38
  -6 -10  -3  176.85   33.87
   6 -10   3  180.79   32.14
   6 -10   3  216.57   29.69
   6  10  -3  176.53   24.20
  -6 -10  -3  182.25   28.81
  -6 -10  -3  183.30   24.23
  -6 -10  -3  158.33   50.28
   6 -10   3  188.91   23.66
   6  10  -3  209.96   33.38
  -6 -10   3  168.52   31.88
   6 -10  -3  176.11   28.61
  -6 -10   3  185.87   27.89
   6 -10  -3  156.43   33.61
   6  10   3  191.14   27.71
  -6 -10   3  186.57   23.79
   6 -10  -3  178.43   25.14
  -6  10  -3  177.54   27.80
  -6 -10  -4  267.93   53.20
  -6 -10  -4  297.60   66.76
  -6 -10  -4  338.88   42.16
   6  10  -4  336.74   42.04
  -6 -10  -4  371.25   42.97
   6  10  -4  301.35   48.14
   6 -10   4  371.60   51.25
   6 -10   4  352.98   41.68
  -6 -10  -4  314.42   46.98
  -6 -10   4  291.24   44.94
  -6 -10   4  333.76   41.74
  -6 -10   4  303.02   49.99
   6 -10  -4  299.61   50.32
   6 -10  -4  327.94   47.34
   6  10   4  333.78   46.04
  -6 -10  -5  103.02   21.55
   6 -10   5   82.00   11.47
  -6 -10  -5   78.93   11.82
   6  10  -5   82.07   11.84
   6  10  -5   69.39   18.58
  -6 -10  -5  149.66   41.58
  -6 -10  -5  119.07   17.59
  -6 -10   5   29.36   19.69
  -6 -10   5   86.47   11.59
   6 -10  -5   66.95   24.67
   6 -10  -5   74.53   11.99
   6  10   5   85.68   18.32
  -6  10  -5   53.15   17.77
  -6 -10   5   90.58   18.15
  -6 -10  -6  164.65   24.51
  -6 -10  -6  224.79   28.27
  -6 -10  -6  261.38   54.73
   6  10  -6  175.99   35.09
  -6 -10  -6  194.58   51.41
   6 -10   6  197.26   24.57
  -6 -10  -6  226.49   39.07
   6  10  -6  178.31   24.57
   6 -10  -6  166.07   25.07
  -6  10  -6  175.81   23.73
   6 -10  -6  192.71   38.44
  -6 -10   6  167.77   27.46
  -6 -10   6  223.92   24.91
  -6  10  -6  152.08   32.10
  -6 -10  -7   88.78   42.12
   6  10  -7  107.10   26.65
  -6 -10  -7   88.77   14.45
  -6 -10  -7  130.50   23.00
   6  10  -7   98.03   14.42
  -6 -10  -7  122.05   40.70
  -6 -10  -7   90.48   23.29
   6 -10   7  102.98   39.81
  -6 -10   7  111.74   14.73
  -6  10  -7   93.93   13.68
  -6  10  -7   60.76   23.18
   6 -10  -7  102.22   15.25
  -6 -10   7   92.91   32.53
  -6 -10   7  104.35   21.87
   6 -10  -7  139.12   35.44
   6 -10   8   70.09   41.14
  -6 -10  -8  132.01   16.28
  -6 -10  -8   21.87   33.84
   6  10  -8  117.05   15.87
  -6 -10  -8   96.59   24.47
   6  10  -8   49.27   23.73
  -6 -10  -8   58.81   46.09
  -6 -10  -8  124.38   28.53
   6 -10  -8   83.56   36.75
  -6 -10   8   98.44   20.80
  -6  10  -8   92.08   27.14
   6 -10  -8  118.74   19.17
  -6  10  -8  114.54   15.22
  -6 -10   8   98.53   15.70
  -6  10   9  -32.92   63.50
  -6 -10  -9   37.23   51.10
  -6 -10  -9   36.95    8.40
   6  10  -9   35.50    8.06
   6 -10   9   23.93   52.36
  -6 -10  -9   25.25   27.57
   6  10  -9   16.10   22.36
   6 -10  -9   36.18   33.86
  -6 -10   9   27.09   10.59
   6 -10  -9   37.43    9.62
  -6  10  -9   42.05    8.09
  -6 -10   9  -13.34   37.11
  -6  10  -9    7.45   24.20
  -7 -10   0  -10.69    7.47
   7  10   0    9.14   10.95
  -7 -10   0   -0.35    1.28
  -7 -10   0    0.31    1.14
   7 -10   0   -0.25    1.85
   7  10   0    3.89    3.10
  -7 -10   0    0.65    4.82
   7 -10   0    1.99    5.03
   7  10  -1    0.23   10.75
  -7 -10  -1   -0.78    1.54
   7 -10   1    5.00    3.93
  -7 -10  -1    1.13    9.18
  -7 -10  -1    7.71    6.01
   7 -10   1    5.37    2.10
   7  10  -1    0.52    2.69
  -7 -10  -1   -0.38    1.14
  -7 -10   1    0.12    1.30
   7  10   1   11.44    3.73
  -7 -10   1    7.30    5.36
   7 -10  -1    1.30    4.64
   7  10   1   -3.02    3.41
  -7 -10   1   -7.09    7.94
   7 -10   2    7.00    2.07
  -7 -10  -2    0.38    1.94
  -7 -10  -2  -18.29   32.56
   7  10  -2    2.22    2.97
  -7 -10  -2   -3.91   10.54
  -7 -10  -2   -5.78    3.50
  -7 -10  -2    3.26    1.72
   7 -10   2    7.98    6.51
   7  10  -2   10.16   13.08
   7 -10   2    1.02    9.08
  -7 -10   2    0.11    1.63
  -7 -10   2    0.68    8.48
  -7 -10   2   -2.20    4.40
   7  10   2   -3.09    3.00
   7 -10  -2   -0.86    3.68
  -7  10  -2  -10.91    6.20
   7  10   2    5.85    3.35
   7 -10   3    2.39    2.07
  -7 -10  -3    6.40    2.19
   7 -10   3    1.04    4.92
  -7 -10  -3    1.90    2.49
   7 -10   3   11.93   12.64
  -7 -10  -3    5.34   33.04
   7  10  -3    7.49    3.79
  -7 -10  -3   19.68   18.96
  -7 -10  -3    9.11    9.16
   7  10  -3  -12.32   12.48
  -7 -10   3    5.03    4.39
   7 -10  -3   -0.56    3.55
  -7  10  -3    0.12    7.88
   7 -10  -3    6.81    8.77
   7 -10  -3    5.27   10.54
   7  10   3   -5.15    4.77
  -7 -10   3    0.85    2.13
  -7 -10   3   -0.18   10.28
   7  10  -4    0.70   13.00
  -7 -10  -4  -24.58   19.41
   7 -10   4    4.70   15.80
  -7 -10  -4    3.01    6.02
   7 -10   4    2.93    2.29
  -7 -10  -4   -1.33    2.19
  -7 -10  -4    6.26    2.78
   7  10  -4    1.12    2.63
  -7 -10  -4  -18.63   31.20
  -7  10  -4    4.80    9.13
  -7 -10   4    8.69    7.23
  -7 -10   4   -0.14    2.21
  -7 -10   4  -14.37   12.22
   7 -10  -4   -5.37   11.72
   7 -10  -4   -9.67    9.61
  -7 -10  -5    8.30    3.65
   7  10  -5    1.23    2.83
   7 -10   5    1.99    2.72
  -7 -10  -5    4.58   32.75
  -7 -10  -5  -28.34   19.06
  -7 -10  -5    0.75    2.74
   7  10  -5  -10.98   13.04
  -7 -10   5    1.46    3.01
  -7  10  -5   11.63   11.40
   7 -10  -5   -2.29    2.26
  -7 -10   5    7.72    6.83
   7 -10  -5    9.97   14.85
   7 -10  -5   17.40   12.71
  -7 -10   5   22.94   15.93
  -7 -10  -6  -23.46   27.32
   7 -10   6    4.38    3.80
   7  10  -6   18.05   15.75
  -7 -10  -6    0.02    2.76
  -7 -10  -6   15.11    4.97
  -7 -10  -6  -18.99   32.94
   7  10  -6    3.83    3.46
  -7 -10  -6    7.81    7.59
  -7 -10   6    2.13    3.42
   7 -10  -6   -1.60    3.09
  -7  10  -6   -6.89   12.09
   7 -10  -6   -8.81   17.26
  -7 -10   6   -6.26   15.66
   7  10  -7    1.81    3.99
  -7 -10  -7   23.14   11.16
   7  10  -7  -27.17   17.10
   7 -10   7    7.89   35.78
  -7 -10  -7    9.18    4.17
  -7 -10  -7   13.59    6.16
  -7 -10  -7  -48.05   37.32
  -7  10  -7   -1.96   13.76
   7 -10  -7   17.87   21.13
  -7 -10   7    8.94    4.39
   7 -10  -7    1.06    3.72
  -7 -10   7    6.19    4.45
  -7 -10   7   -8.15   25.28
  -7 -10  -8    0.23    2.88
   7 -10   8    3.29   41.77
   7  10  -8  -25.42   19.55
  -7 -10  -8    4.75    7.23
  -7 -10  -8  -40.13   40.90
  -7 -10  -8   -1.76    5.86
  -7 -10  -8   16.51   27.59
   7  10  -8    1.70    3.49
   7 -10  -8  -14.51   22.94
  -7  10  -8   -3.81   18.39
  -7 -10   8   -1.64    4.63
   7 -10  -8    2.10    4.15
  -7  10  -8    4.28    2.54
  -7 -10   8   34.38   37.26
  -7 -10   8    2.99    4.30
  -8 -10   0  118.95   25.94
   8  10   0  141.64   22.05
   8  10   0  198.35   33.29
   8 -10   0  205.76   26.27
  -8 -10   0  239.65   38.79
   8 -10   0  156.11   20.65
   8  10  -1   76.68   21.18
  -8 -10  -1   87.02   19.24
   8  10  -1   99.84   15.28
   8 -10   1   92.39   19.89
   8 -10   1   78.65   10.72
  -8 -10  -1   58.47   18.38
   8 -10  -1   79.63   17.05
   8  10   1   59.93   14.74
  -8 -10   1   96.42   20.17
  -8 -10   1   88.83   19.69
  -8 -10  -2  158.04   32.17
   8  10  -2  150.41   32.21
   8  10  -2  158.73   23.35
  -8 -10  -2  138.05   29.70
   8 -10   2  196.57   29.06
   8 -10   2  192.78   22.29
  -8 -10  -2  177.55   48.48
  -8 -10   2  139.72   29.94
   8 -10  -2  201.35   26.18
  -8 -10   2  170.95   27.95
  -8 -10  -3    8.85   17.99
   8  10  -3   47.25    8.33
  -8 -10  -3   77.33   41.84
  -8 -10  -3   50.82   15.34
   8 -10   3    9.46   17.81
   8 -10   3   45.38    6.75
   8  10  -3   15.85   17.26
  -8 -10  -3   35.18    4.71
  -8 -10   3   30.28   17.65
   8 -10  -3   38.22   10.35
  -8 -10   3   70.17   17.70
  -8  10  -3   19.19   10.45
   8  10  -4  114.47   16.46
   8  10  -4  161.65   30.92
  -8 -10  -4  134.10   44.47
  -8 -10  -4  116.75   15.15
   8 -10   4   98.77   29.78
  -8 -10  -4   88.76   23.97
  -8 -10  -4  107.00   35.99
   8 -10   4  125.02   15.92
  -8 -10  -4  120.75   15.14
   8 -10  -4  104.91   21.48
  -8 -10   4  118.35   26.83
  -8 -10   4  130.70   25.75
  -8  10  -4   88.52   20.80
   8 -10  -4  123.93   17.41
   8 -10  -4  145.34   22.47
   8 -10   5   67.55   10.56
  -8 -10  -5   71.98    9.80
   8 -10   5   64.90   30.72
  -8 -10  -5  106.69   24.28
  -8 -10  -5   33.37   39.21
   8  10  -5   58.42   11.95
  -8 -10  -5   88.68   10.32
  -8 -10  -5  106.90   37.87
   8  10  -5   85.46   25.24
   8 -10  -5   39.32   17.57
  -8 -10   5   55.36   16.96
   8 -10  -5   81.49   11.43
  -8 -10   5    9.36   20.52
  -8  10  -5   68.69   17.15
   8 -10  -5   71.26   18.91
   8  10  -6  100.89   15.30
  -8 -10  -6   80.25   37.52
   8  10  -6   99.59   29.92
   8 -10   6   86.54   38.00
   8 -10   6  106.63   15.39
  -8 -10  -6  117.67   14.52
  -8 -10  -6  150.25   31.07
  -8 -10  -6  125.90   46.41
   8 -10  -6   70.94   24.75
   8 -10  -6  107.38   27.75
   8 -10  -6  110.82   15.96
  -8  10  -6   97.92   23.62
  -8 -10   6   96.29   21.18
  -8 -10   6  114.34   35.16
   8  10  -7   49.68    9.13
  -8 -10  -7   48.33   10.05
   8 -10   7   14.79   44.67
  -8 -10  -7   29.40   44.00
  -8 -10  -7   37.88    7.17
  -8 -10  -7   20.39   40.44
   8  10  -7    4.88   24.70
  -8 -10  -7   50.32   18.10
   8 -10  -7   34.93    8.51
  -8 -10   7   -1.42   26.27
   8 -10  -7   55.25   24.07
  -8 -10   7   30.77   11.41
  -8  10  -7   35.24   17.98
   8 -10  -7    8.18   20.11
   9 -10   0    2.73    2.25
   9  10   0   17.60    4.79
  -9 -10   0   23.57    9.72
  -9 -10   0  -13.76   10.79
   9 -10   0    8.13    7.63
  -9 -10  -1    3.51    6.97
   9  10  -1  -14.89   16.31
  -9 -10  -1   -8.94   11.29
   9 -10   1   12.14    2.32
  -9 -10  -1  -19.61   39.80
   9  10  -1    3.90    3.68
  -9 -10   1   -8.72   11.37
   9 -10  -1    2.87    5.37
   9  10   1    9.37    4.65
  -9 -10   1    7.54    7.24
  -9 -10  -2    4.93    7.55
  -9 -10  -2   -0.86   13.87
   9  10  -2    0.62    3.29
   9  10  -2   23.82   17.64
  -9 -10  -2   49.58   37.96
   9 -10   2   -2.71    1.18
   9 -10  -2   -0.47    5.15
  -9 -10   2    2.58    6.52
   9  10   2    5.45    4.30
  -9 -10   2   13.05   13.59
  -9 -10  -3    7.17    6.95
   9 -10   3    1.64    2.06
   9  10  -3    2.59    3.11
   9  10  -3   -9.21   18.26
  -9 -10  -3   -5.11   37.02
  -9 -10  -3    6.85   16.71
  -9 -10   3   11.01    5.28
  -9 -10   3   24.84   18.08
   9 -10  -3    3.63    4.79
   9  10  -4   -2.27    2.77
   9  10  -4   -6.99   19.30
   9 -10   4    5.39    2.99
  -9 -10  -4   14.29   11.17
  -9 -10  -4   35.19   22.57
   9 -10   4  -49.37   26.83
  -9 -10  -4   16.41   38.89
   9 -10  -4    4.82    4.29
  -9  10  -4    1.30   10.01
  -9 -10   4  -12.43   16.12
   9 -10  -4    0.33    2.85
  -9 -10   4    8.94    6.60
   9 -10   5    2.80    3.59
   9  10  -5    0.96    3.41
  -9 -10  -5    0.22    7.99
   9  10  -5   22.69   25.04
   9 -10   5  -39.89   34.45
  -9 -10  -5  -53.89   36.19
  -9 -10  -5  -18.10   26.79
   9 -10  -5    1.26   13.88
  -9 -10   5   -2.91    5.51
  -9 -10   5   37.81   24.06
   9 -10  -5    1.48    3.38
  -9  10  -5    6.44   12.88
   9 -10  -5   11.83   13.29
   9  10  -6    6.42    4.23
   9  10  -6   -0.29   21.92
   9 -10   6   32.04   47.79
  -9 -10  -6  -11.78   43.58
  -9 -10  -6   57.63   36.27
  -9 -10  -6    4.06    9.38
  -9 -10   6   11.76    7.97
  -9 -10   6  -10.08   24.06
   9 -10  -6   24.68   18.46
  -9  10  -6   27.87   15.59
   9 -10  -6   22.02   17.34
   9 -10  -6   -3.38    2.85
 -10 -10   0  105.46   23.79
  10  10   0  128.58   20.68
 -10 -10   0   56.07   20.67
 -10 -10   0    1.73   48.61
  10 -10   0  112.94   13.80
 -10 -10  -1   23.69   13.82
 -10 -10  -1   67.77   47.12
 -10 -10  -1   24.89   16.19
  10  10  -1   22.34    8.02
  10 -10   1   43.53    5.17
 -10 -10   1   72.63   20.32
 -10 -10   1   29.39   16.94
  10 -10  -1   41.19   14.01
  10 -10  -1   27.25    6.38
  10  10   1   16.15    7.94
  10  10  -2   52.93   24.00
 -10 -10  -2  103.99   24.37
 -10 -10  -2   52.01   47.73
  10  10  -2   82.84   14.18
  10 -10   2   73.54    9.61
 -10 -10  -2   49.35   19.98
 -10 -10   2   68.45   21.67
  10  10   2   41.13   13.32
 -10 -10   2   76.86   20.06
  10 -10  -2   91.32   18.76
 -10 -10  -3   20.82   20.60
  10  10  -3  -21.12   21.85
  10 -10   3   51.23    8.03
 -10 -10  -3   71.13   42.64
 -10 -10  -3   53.75   16.33
  10  10  -3   52.56   10.23
  10 -10  -3   49.82   13.89
 -10 -10   3   37.13   13.74
 -10 -10   3   12.85   19.71
 -10 -10  -4   -2.09   44.05
  10 -10   4   98.11   13.74
  10  10  -4   88.71   16.01
 -10 -10  -4  121.61   28.05
 -10 -10  -4   89.63   31.39
  10  10  -4   26.84   29.59
  10 -10  -4   98.17   13.93
 -10 -10   4  115.40   31.00
  10 -10  -4  112.72   20.59
 -10 -10   4  152.35   28.35
  10  10  -5   54.09   30.84
 -10 -10  -5    9.40   34.26
 -10 -10  -5   57.67   19.83
  10  10  -5   36.40    8.16
  10 -10   5   33.66    8.18
 -10 -10   5   12.16   25.98
 -10 -10   5   53.30   15.61
  10 -10  -5   56.14    9.61
 -10  10  -5   35.81   14.91
 -11 -10   0   -0.83   15.67
 -11 -10   0   31.30   55.00
 -11 -10   0   14.00    8.04
 -11 -10  -1 -101.25   67.08
 -11 -10  -1   29.35   16.18
  11 -10   1    1.94    1.77
  11  10  -1   14.60    5.93
 -11 -10  -1    7.81    8.46
 -11 -10   1   10.26    9.27
  11  10   1    8.28    5.22
 -11 -10   1   60.09   62.69
  11 -10  -1    1.47    2.42
 -11 -10   1    6.26   17.76
 -11 -10  -2    6.10   16.16
 -11 -10  -2   -2.44    5.57
  11 -10   2    2.20    2.19
  11  10  -2   -3.06    2.76
 -11 -10   2    2.48    6.75
 -11 -10   2    3.44   19.13
   0 -11   0   -4.88    5.87
   0  11   0   -0.28    2.87
   0  11   0   16.43   10.77
   0 -11   0    1.17    3.13
   0  11  -1    3.36    5.62
   0  11  -1    1.93    2.68
   0  11   1    4.24    5.70
   0 -11  -1   16.99    8.68
   0 -11   1   -2.19    1.42
   0 -11  -1    2.58    3.64
   0 -11   1    4.16    5.91
   0  11   1    4.91    2.50
   0 -11  -2   -2.00    3.33
   0 -11   2    0.00    1.74
   0  11  -2    2.98    5.06
   0 -11   2   -5.46    4.49
   0 -11  -2   -1.77    7.42
   0  11  -2    0.92    2.58
   0  11   2    3.03    7.44
   0 -11  -3   -4.15   22.27
   0 -11  -3    7.42    3.29
   0 -11   3    0.03    2.08
   0 -11  -3   -2.34   10.51
   0 -11  -3    5.51    5.17
   0  11  -3    3.31    5.60
   0 -11   3    1.60    6.43
   0  11  -3    5.07    2.84
   0 -11  -4   -4.25   20.65
   0 -11   4   -1.59    2.01
   0 -11   4    4.51    6.62
   0  11  -4    7.51    7.09
   0  11  -4   -2.10    2.00
   0 -11  -4    3.93    3.08
   0 -11  -4    1.02   15.24
   0  11  -5   -7.27    9.43
   0 -11   5    1.57    2.06
   0 -11  -5    1.97   10.12
   0  11  -5   -0.04    2.02
   0 -11  -5    5.29    3.36
   0 -11  -5  -15.68   18.13
   0 -11  -5   -0.37    2.86
   0 -11   5   -9.66    8.79
   0 -11   6   -1.75   17.27
   0 -11   6    1.09    2.58
   0 -11  -6    6.68   28.15
   0  11  -6   -1.05    2.11
   0 -11  -6    0.33    3.04
   0 -11  -6   -1.15    2.82
   0  11  -6   -2.76   19.18
   0 -11   7    2.48    3.35
   0  11  -7   -0.81    2.22
   0  11  -7    0.39   11.62
   0 -11  -7  -10.54   25.78
   0 -11   7    1.73   14.51
   0 -11  -7   -3.77    2.00
   0 -11   8  -13.01   20.13
   0  11   8  -55.10   55.97
   0 -11  -8    8.02    5.41
   0 -11  -8   21.56   27.81
   0  11  -8    6.22    4.04
   0  11  -8  -18.28   13.24
   0  11   9   15.17   74.19
   0 -11  -9   44.91   30.08
   0  11  -9  -12.60   19.58
   0 -11  -9    7.74    4.87
   0  11  -9   -1.74    3.40
   0 -11   9    8.55   50.25
   0  11 -10   -2.25    2.93
   0 -11  10  -14.91   34.90
   0 -11 -10  -30.10   42.04
   0 -11 -10    9.83    5.46
   0  11  10   48.05   65.76
   0  11 -10    7.35   21.92
   0 -11  11  -21.30   45.18
   0 -11 -11    3.13    3.20
   0  11 -11   -9.73   36.45
   0  11  11  -71.21  120.08
   0  11 -11    2.20    4.23
   0 -11 -11    4.91   51.72
   1 -11   0  495.10   66.02
   1 -11   0  586.83   69.55
  -1  11   1  613.63   96.64
  -1 -11  -1  812.40   94.70
   1 -11   1  805.13   93.71
   1 -11   1  733.86   96.59
   1  11  -1  743.01   94.09
  -1  11  -1  732.63   97.07
   1 -11  -1  773.66   97.94
  -1 -11   1  761.93   97.27
   1  11   1  806.83  101.14
  -1 -11   1  832.41   93.63
   1 -11  -1  702.28   94.62
   1  11  -2  385.26   52.26
   1 -11   2  433.58   56.03
   1  11  -2  436.13   56.25
   1 -11   2  446.97   52.04
  -1 -11  -2  409.09   53.55
  -1 -11  -2  385.59   53.80
  -1 -11   2  536.58   59.85
   1 -11  -2  445.08   57.83
   1 -11  -2  347.05   53.59
  -1 -11   2  440.96   52.01
   1  11   2  471.79   60.76
  -1  11  -2  382.69   52.31
  -1 -11  -3  691.97   80.62
   1  11  -3  555.89   75.90
   1  11  -3  610.06   72.14
  -1 -11  -3  526.58   74.42
   1 -11   3  519.86   76.09
  -1 -11  -3  470.35   93.76
  -1 -11  -3  578.96   73.54
   1 -11   3  611.49   71.86
  -1  11  -3  583.56   72.12
  -1 -11   3  610.04   71.90
   1 -11  -3  539.70   95.85
  -1 -11   3  565.34   76.85
   1 -11  -3  575.51   72.49
  -1  11  -3  543.17   75.42
   1 -11  -3  600.45   78.37
   1 -11   4  231.72   28.86
  -1 -11  -4  226.20   30.50
   1 -11   4  205.41   34.79
  -1 -11  -4  295.87   59.32
  -1 -11  -4  244.36   41.33
   1  11  -4  227.95   28.97
   1  11  -4  194.86   33.13
   1 -11  -4  238.44   49.32
  -1 -11   4  214.16   35.14
   1 -11  -4  233.27   29.34
  -1 -11   4  236.27   28.94
   1 -11  -4  237.58   36.52
  -1  11  -4  223.34   28.93
  -1  11  -4  185.17   32.86
  -1 -11  -5  252.36   35.28
   1 -11   5  261.70   42.60
  -1 -11  -5  214.15   44.17
   1 -11   5  290.66   34.57
   1  11  -5  389.62   49.22
  -1 -11  -5  268.55   65.88
  -1 -11  -5  275.42   36.13
   1  11  -5  265.08   34.37
  -1 -11   5  243.21   43.76
   1 -11  -5  277.15   42.76
  -1 -11   5  296.78   34.65
   1 -11  -5  316.57   57.49
  -1  11  -5  258.66   34.28
  -1  11  -5  227.28   39.32
   1 -11  -5  262.40   34.52
  -1 -11  -6   38.07    9.18
  -1 -11  -6   28.75   28.26
   1  11  -6   29.66    6.42
   1 -11   6   25.35   16.10
   1 -11   6   31.93    6.86
  -1 -11  -6   23.49    6.64
   1  11  -6   21.57   15.69
  -1 -11   6   23.61    5.87
  -1  11  -6   17.18    5.16
   1 -11  -6   28.54    7.52
  -1  11  -6    5.07    9.79
   1 -11  -6   18.18   23.15
   1  11   6   22.88    7.02
  -1 -11   6   38.33   25.68
  -1 -11  -7  151.73   20.91
  -1  11   7   46.16   40.63
   1 -11   7  118.71   30.15
   1  11  -7  124.14   18.61
   1 -11   7  179.01   19.64
  -1 -11  -7  127.04   40.53
   1  11  -7  152.10   29.15
  -1 -11  -7  136.59   19.83
  -1 -11   7  104.96   30.44
   1 -11  -7  122.14   38.37
   1  11   7  140.49   19.78
  -1  11  -7  129.66   18.58
  -1  11  -7   91.02   25.90
   1 -11  -7  131.42   19.94
  -1 -11   7  152.35   19.39
   1 -11   8   41.25   24.75
  -1  11   8   58.93   53.11
  -1 -11  -8   36.10   35.53
   1  11  -8   58.99   28.06
   1  11  -8   80.21   12.75
  -1 -11  -8   71.74   15.23
  -1  11  -8  107.58   27.76
   1 -11  -8   63.94   32.91
  -1  11  -8   97.45   14.81
   1  11   8  114.37   14.56
   1 -11  -8   98.39   17.15
  -1 -11   8   39.58   24.78
   1 -11   9  171.24   51.65
   1  11  -9  106.44   15.88
  -1 -11  -9  123.93   35.22
  -1 -11  -9  117.24   20.32
   1  11  -9  107.70   28.40
  -1  11   9  125.75  116.05
  -1  11  -9  111.84   15.99
   1 -11  -9    6.26   32.98
   1 -11  -9  135.11   17.91
   1  11   9  102.84   16.88
  -1 -11   9  103.88   35.17
   1  11   9   44.17   77.28
  -1  11  -9   95.13   34.41
   1  11 -10   30.85    8.16
  -1 -11 -10   50.13   10.30
   1  11 -10   84.53   34.27
   1 -11  10   60.72   40.19
  -1  11  10  -10.43   66.83
  -1 -11 -10   27.44   55.48
   1  11  10   49.91   10.76
   1 -11 -10   75.46   30.59
   1  11  10  130.92   69.61
  -1  11 -10   24.59    7.58
   1 -11 -10   25.49    8.93
  -1  11 -10   55.42   35.53
  -1 -11  10   59.37   35.37
   2 -11   0   -1.69    2.10
  -2 -11   0    2.40    2.40
   2 -11   0    0.00    4.87
   2  11   0   -0.73    7.01
   2  11   0    1.12    2.60
  -2 -11   0    7.45    6.34
  -2  11   0   -3.18    5.54
   2 -11   1    2.77    4.81
  -2 -11  -1   -4.20   10.54
  -2 -11  -1    5.61    3.53
  -2 -11  -1    3.86    3.80
   2  11  -1   -1.21    5.30
   2 -11   1    2.95    2.42
  -2  11   1   -2.70    5.76
   2  11  -1    0.17    3.07
  -2  11  -1   16.45    8.23
  -2  11  -1    4.29    2.48
  -2 -11   1   -4.65    5.39
   2 -11  -1    0.90    3.01
   2  11   1   16.06    9.15
  -2 -11   1   -0.05    1.91
   2 -11  -1    5.09    6.47
   2  11   1    3.48    3.46
  -2 -11  -2    1.02    3.64
   2 -11   2   -3.24    4.16
   2  11  -2    9.09    9.15
  -2 -11  -2   -3.00    2.64
   2 -11   2    3.38    2.54
  -2 -11  -2    6.36    8.81
   2  11  -2   -1.19    2.18
  -2 -11   2    1.09    4.97
   2  11   2    4.92    3.53
  -2 -11   2    0.50    1.88
   2 -11  -2    4.24    4.84
   2 -11  -2    7.96    6.46
  -2  11  -2    2.77    2.87
  -2  11  -2   -1.90    5.19
   2  11   2    2.10    7.41
   2  11  -3   -1.72    1.59
  -2 -11  -3    5.74    3.75
  -2 -11  -3  -22.34   34.56
  -2 -11  -3   -8.81    7.56
   2 -11   3    3.81    2.34
   2  11  -3    0.87    5.73
  -2 -11  -3    2.48    4.08
   2 -11   3   -2.41    6.59
  -2 -11   3    0.26    6.98
  -2 -11   3    2.77    2.16
  -2  11  -3    6.40    2.93
  -2  11  -3   -4.57    5.32
   2 -11  -3   12.86   19.54
   2 -11  -3   19.51   10.15
  -2 -11  -4    0.40    4.90
   2 -11   4   -0.81    1.62
   2 -11   4   -4.34    8.03
  -2 -11  -4    2.89    3.86
  -2 -11  -4   12.04   40.55
   2  11  -4    1.22    6.96
  -2 -11  -4  -16.35   10.77
   2  11  -4    0.68    2.05
  -2 -11   4   -0.49    2.02
   2 -11  -4  -10.54    8.45
   2 -11  -4   -2.08   17.83
  -2 -11   4    0.58   10.36
  -2  11  -4   -6.71    6.27
  -2  11  -4   -0.51    2.17
   2  11   4    7.37    4.39
  -2 -11  -5    4.84    5.13
   2  11  -5    0.13    2.22
  -2 -11  -5   -2.60    3.53
  -2 -11  -5    0.47    3.36
  -2 -11  -5    1.97   16.02
   2 -11   5    1.47    2.52
   2  11  -5   -4.12    8.16
   2 -11   5   -0.14   10.69
  -2 -11  -5    8.57   23.74
  -2  11  -5   -9.20    7.32
   2 -11  -5    4.73   10.02
  -2 -11   5   -1.06    1.98
   2 -11  -5    6.65   18.20
  -2  11  -5    2.16    2.49
   2  11   5    2.46    4.11
  -2 -11   5  -14.57    8.81
   2  11  -6   -1.93    2.20
  -2 -11  -6   -5.73   11.32
   2 -11   6    3.64    3.36
   2 -11   6  -11.84   12.54
  -2 -11  -6   -2.85    4.16
  -2 -11  -6  -38.52   31.45
   2  11  -6   -6.47   13.26
  -2 -11  -6    2.29    4.13
  -2 -11  -6    2.25    3.60
   2  11   6    0.16    3.55
  -2 -11   6  -15.71   11.20
   2 -11  -6   -0.11    3.64
   2 -11  -6   -0.92   19.46
  -2  11  -6   -3.01   10.25
  -2  11  -6    4.19    3.29
  -2 -11   6    4.97    3.54
  -2 -11  -7    0.97    5.04
  -2 -11  -7    1.55    4.10
   2  11  -7   -1.04   10.29
  -2 -11  -7  -13.91   32.36
   2 -11   7    0.93    2.53
  -2  11   7   -6.24   30.12
   2  11  -7    2.00    2.87
   2 -11   7  -14.40   16.00
   2  11   7    2.13    4.08
   2 -11  -7   22.51   23.04
  -2 -11   7    3.86   14.32
  -2  11  -7   -0.16    2.77
  -2  11  -7  -11.38   10.33
  -2 -11   7   -2.25    2.39
   2 -11  -7    0.99    3.51
  -2 -11  -8    1.53    5.09
  -2 -11  -8    1.63    3.97
   2  11  -8    4.49    3.62
   2 -11   8    0.28   22.52
   2  11  -8   12.36   20.95
  -2  11   8   19.90   49.28
  -2 -11  -8  -38.43   41.92
   2  11   8    0.49    5.10
  -2 -11   8   -3.40   21.32
  -2  11  -8    0.69    3.10
  -2  11  -8  -12.63   13.35
   2 -11  -8    2.59    4.25
   2 -11  -8    7.67   24.98
   2  11  -9   -2.37    2.41
   2  11  -9    3.20   19.50
  -2 -11  -9    1.35    4.51
  -2  11   9   -9.01   53.20
  -2 -11  -9   56.22   48.99
   2 -11   9   -4.73   28.47
   2 -11  -9    0.16    3.79
  -2  11  -9    4.68   16.61
   2 -11  -9  -29.98   25.58
  -2  11  -9   -1.06    2.39
   2  11   9    0.03    5.60
  -2 -11   9   34.90   27.43
  -2 -11 -10    2.87    4.32
   2  11 -10    4.29    4.02
  -2 -11 -10  -42.63   37.27
   2  11 -10  -13.34   49.97
  -2  11  10  125.25   72.57
  -2  11 -10    5.10    4.31
   2 -11 -10   28.66   28.85
  -2  11 -10    8.05   49.24
   2 -11 -10   -1.44    3.83
   2  11  10   -1.17    5.01
  -2 -11  10  -66.69   41.35
  -3  11   0  720.30   91.15
  -3 -11   0  780.24   87.83
   3 -11   0  649.91   88.13
   3  11   0  626.88   88.48
  -3 -11   0  715.67   90.19
   3 -11   0  697.34   90.44
   3  11   0  873.31   96.27
   3 -11   1  561.25   67.89
  -3 -11  -1  627.13   74.43
  -3 -11  -1  540.32   70.20
  -3  11   1  530.59   71.26
   3 -11   1  562.31   70.65
  -3 -11  -1  557.42   68.21
   3  11  -1  530.28   68.29
   3  11  -1  508.74   72.31
  -3 -11   1  566.32   70.43
  -3  11  -1  465.71   70.55
   3 -11  -1  574.49   71.46
   3  11   1  471.17   72.37
  -3 -11   1  559.42   67.57
  -3 -11   1  603.53   72.62
   3 -11   2  281.57   39.12
  -3 -11  -2  259.09   37.61
   3  11  -2  281.35   35.60
  -3 -11  -2  326.85   43.87
   3  11  -2  272.90   40.08
  -3 -11  -2  271.73   36.39
   3 -11   2  305.34   35.26
  -3  11  -2  228.68   37.90
   3 -11  -2  319.57   57.30
  -3 -11   2  290.89   35.15
  -3 -11   2  310.93   40.47
   3  11   2  254.04   40.91
   3 -11  -2  248.33   39.58
   3  11  -3  335.36   42.86
   3 -11   3  300.63   47.34
  -3 -11  -3  330.23   78.51
  -3 -11  -3  377.13   45.32
   3 -11   3  374.14   42.65
  -3 -11  -3  345.31   45.66
  -3 -11  -3  390.87   52.79
   3  11  -3  297.71   46.91
  -3 -11   3  354.85   42.68
  -3  11  -3  277.32   45.67
   3 -11  -3  373.21   64.41
   3  11   3  308.39   44.67
   3 -11  -3  329.15   48.28
  -3 -11   3  381.77   49.00
   3 -11   4  122.29   24.06
   3  11  -4  109.14   13.92
   3  11  -4   58.53   17.30
  -3 -11  -4  114.71   16.93
  -3 -11  -4   83.37   35.57
  -3 -11  -4   85.48   14.28
   3 -11   4  105.93   13.61
  -3 -11  -4  152.97   23.59
  -3 -11  -4  232.00   44.50
  -3 -11   4   97.96   13.71
   3  11   4  104.92   15.75
  -3 -11   4   96.14   22.65
  -3  11  -4  102.70   13.87
   3 -11  -4  126.99   32.91
   3 -11  -4   74.31   19.98
  -3  11  -4   76.57   17.89
  -3 -11  -5  210.05   32.95
   3  11  -5  256.88   32.48
  -3 -11  -5  470.54   70.56
  -3 -11  -5  171.35   48.27
  -3 -11  -5  249.28   36.40
  -3 -11  -5  249.70   35.53
   3  11  -5  328.80   51.51
   3 -11   5  245.13   43.98
   3 -11   5  262.93   32.37
   3  11   5  232.65   34.32
  -3  11  -5  275.93   38.61
  -3  11  -5  262.27   32.40
   3 -11  -5  251.10   40.11
  -3 -11   5  259.76   32.55
  -3 -11   5  291.97   42.31
   3 -11  -5  215.18   47.70
  -3 -11  -6  160.20   25.06
   3  11  -6  169.32   22.14
   3 -11   6  107.90   34.01
  -3 -11  -6  167.06   48.91
   3 -11   6  197.20   22.34
   3  11  -6  155.70   30.25
  -3 -11  -6  230.36   36.00
  -3 -11  -6  161.91   22.93
   3 -11  -6  153.24   39.14
  -3 -11   6  123.44   31.27
   3  11   6  179.70   24.57
  -3  11  -6  154.31   21.72
   3 -11  -6  159.32   22.91
  -3  11  -6  132.30   30.98
   3  11  -7  263.34   43.33
   3  11  -7  232.49   29.83
  -3 -11  -7  296.95   44.35
  -3 -11  -7  248.40   59.51
   3 -11   7  254.59   52.65
  -3 -11  -7  213.14   30.63
   3 -11   7  242.32   30.67
  -3 -11  -7  249.48   33.85
   3 -11  -7  208.86   30.61
  -3 -11   7  246.00   30.34
   3 -11  -7  187.58   51.43
  -3 -11   7  171.39   43.95
  -3  11  -7  206.02   29.33
   3  11   7  245.72   32.57
  -3  11  -7  167.70   37.79
   3 -11   8   44.39   23.67
  -3 -11  -8   24.11    8.28
  -3 -11  -8   23.25   11.26
  -3  11   8  -16.03   38.55
   3  11  -8   29.36    7.63
   3  11  -8   21.44   18.42
  -3 -11  -8  110.15   50.19
  -3  11  -8   35.23    7.30
  -3  11  -8   11.73   16.32
   3 -11  -8   67.34   26.41
   3 -11  -8   46.63   10.08
   3  11   8   44.07   13.26
  -3 -11   8   23.96   20.61
  -3 -11  -9   33.76   39.91
   3  11  -9   73.55   12.61
  -3  11   9   65.41   53.48
  -3 -11  -9   83.34   14.22
   3  11  -9   98.44   34.42
  -3  11  -9   60.95   11.44
   3  11   9   56.84   14.48
   3 -11  -9   88.12   38.11
  -3 -11   9    9.58   26.93
  -3  11  -9   16.53   19.73
   3 -11  -9   71.89   14.09
  -3 -11 -10  -39.12   57.18
   3  11 -10    2.46   50.90
   3 -11  10   13.08   29.35
  -3  11  10  -10.39   65.62
   3  11 -10   27.36    7.56
   3 -11 -10   38.14    9.83
  -3 -11  10  -15.42   39.11
   3  11  10   29.84   13.68
  -3  11 -10   51.83   54.88
   3 -11 -10    7.20   36.70
  -4 -11   0   -9.96    6.90
   4 -11   0   -1.20    4.99
   4 -11   0    1.35    2.65
  -4  11   0  -10.42    5.00
  -4 -11   0    1.78    2.08
   4  11   0    3.81    7.51
   4  11   0   -2.48    2.31
  -4 -11   0    1.09    3.71
  -4 -11  -1    1.56    1.99
   4  11  -1    0.75    2.65
  -4 -11  -1    1.59    3.46
   4 -11   1    3.55    1.97
  -4 -11  -1    1.00    7.91
   4  11  -1    9.35    8.52
   4 -11   1    0.24    4.90
   4 -11  -1   -5.55    5.74
  -4 -11   1    3.42    3.32
  -4 -11   1   -2.29    7.08
   4  11   1   -7.11    7.63
  -4  11  -1    3.44    5.67
  -4 -11   1   -0.03    1.55
   4  11   1    1.61    2.63
   4 -11  -1    4.62    3.33
  -4 -11  -2    4.03    5.32
  -4 -11  -2   -5.98    8.33
   4  11  -2    5.13    2.97
  -4 -11  -2    5.94    3.36
   4 -11   2   -2.15    6.17
   4 -11   2    3.61    2.07
   4  11  -2    3.05    7.70
  -4 -11   2    4.78    4.04
  -4 -11   2   -0.74    1.50
   4 -11  -2   -3.39    6.53
  -4  11  -2   10.48    6.96
  -4 -11   2   -4.14    5.94
   4 -11  -2    6.54   17.20
   4  11   2   -1.84    3.33
   4  11  -3    1.00    7.80
   4 -11   3    1.09    1.57
  -4 -11  -3   -3.05    1.84
  -4 -11  -3    1.89    9.95
   4  11  -3   -2.08    1.72
   4 -11   3   -2.04    8.26
  -4 -11  -3  -14.20   24.36
  -4 -11  -3    8.99    3.60
  -4 -11  -3    0.61    3.62
   4  11   3   -1.31    3.77
   4 -11  -3    3.60   16.58
  -4  11  -3    4.69    1.93
  -4 -11   3   -1.13    1.66
   4 -11  -3   -7.62    8.18
  -4  11  -3   -2.66    5.90
  -4 -11   3   -0.30    2.47
  -4 -11   3   -8.75    5.40
   4 -11   4    3.55    2.38
  -4 -11  -4   16.97   16.14
  -4 -11  -4    4.09   28.70
  -4 -11  -4    6.64    5.37
  -4 -11  -4    1.66    2.86
  -4 -11  -4   11.66    5.52
   4 -11   4  -20.63    9.68
   4  11  -4    0.94    2.38
   4  11  -4   -6.86    7.90
  -4 -11   4  -10.11    8.28
   4  11   4    1.13    3.83
  -4  11  -4    1.66    2.51
   4 -11  -4   13.39   17.28
   4 -11  -4   -5.15    9.19
  -4 -11   4   -3.09    2.15
  -4  11  -4    4.13    7.21
   4 -11   5    6.91   13.71
   4  11  -5    1.48    2.83
   4 -11   5    5.94    3.38
  -4 -11  -5    3.35    5.13
  -4 -11  -5  -55.20   28.74
   4  11  -5   -7.04    8.92
  -4 -11  -5    2.26    5.92
  -4 -11  -5    4.47    4.12
  -4 -11  -5   -1.08   17.47
  -4  11  -5    1.89    8.14
   4 -11  -5   14.71   20.85
  -4 -11   5   -3.01    2.36
  -4  11  -5    1.02    2.75
   4 -11  -5   -5.87   10.16
  -4 -11   5    3.66   12.51
   4  11   5    1.51    4.63
  -4 -11  -6  -12.91   20.00
  -4 -11  -6    0.66   29.51
   4  11  -6    1.45    3.17
  -4 -11  -6   -0.25    3.56
   4  11  -6   -6.30   10.54
   4 -11   6    1.95    2.87
  -4 -11  -6    3.58    7.53
   4 -11   6  -21.10   16.76
  -4 -11  -6   20.76    8.79
   4 -11  -6   26.56   21.17
   4 -11  -6   -0.08    3.21
  -4 -11   6    2.66    3.91
  -4  11  -6    6.24    3.65
  -4  11  -6  -19.46    9.21
   4  11   6    4.18    6.47
  -4 -11   6   14.33   13.70
   4  11  -7   -0.49    2.84
  -4 -11  -7    8.82    9.38
   4  11  -7    0.94   13.85
  -4 -11  -7   -6.78   18.03
  -4 -11  -7  -31.49   29.71
   4 -11   7   -6.91   18.34
  -4 -11  -7    4.86    4.14
  -4 -11  -7   -0.80    4.21
  -4  11  -7   -9.35   12.37
  -4 -11   7   28.15   15.56
  -4  11  -7    1.72    3.01
   4 -11  -7   -9.76   19.93
   4  11   7   -4.25    4.52
   4 -11  -7   -0.15    3.52
  -4 -11   7    3.06    3.75
  -4 -11  -8   13.10    7.07
   4  11  -8    1.24    3.32
  -4  11   8  -32.24   45.09
   4  11  -8  -15.01   16.54
  -4 -11  -8    2.61   18.92
  -4 -11  -8    8.09    4.65
  -4 -11  -8  -19.99   36.81
   4  11   8    1.35    5.75
  -4 -11   8   -7.75   20.61
   4 -11  -8   18.23   27.98
  -4  11  -8    9.76   17.33
  -4  11  -8   -2.31    2.69
   4 -11  -8    1.63    3.93
  -4 -11  -9    3.55    4.17
  -4 -11  -9   11.20   40.52
  -4  11   9    6.75   51.01
   4  11  -9    4.64    3.91
   4  11  -9   15.70   19.80
   4 -11   9    8.43   28.81
  -4  11  -9  -30.10   19.35
   4 -11  -9   -4.84   32.55
  -4  11  -9    7.43    4.50
   4 -11  -9   -6.42    3.21
  -4 -11   9  -22.19   23.82
   4  11 -10   -5.69   25.52
   4 -11  10   34.25   48.52
  -4 -11 -10  -29.17   44.77
  -4  11  10   15.15   69.99
  -4 -11 -10    3.95    5.00
   4  11 -10   -3.25    3.25
   4 -11 -10   -1.03    4.52
   4 -11 -10   36.07   33.09
  -4 -11  10   24.39   48.51
  -4  11 -10    1.93    3.86
  -4  11 -10   57.11   31.05
  -5 -11   0   84.88   16.17
  -5 -11   0   80.40   10.26
   5 -11   0   81.02   14.36
   5  11   0   83.75   19.86
   5  11   0   66.68   13.20
  -5  11   0   69.50   15.01
   5 -11   0   67.09   10.85
   5 -11   1  299.46   36.71
   5  11  -1  238.70   41.98
  -5 -11  -1  261.90   40.08
   5 -11   1  350.64   40.36
   5  11  -1  321.28   37.63
  -5 -11  -1  306.12   36.57
   5  11   1  226.24   42.17
   5 -11  -1  289.13   39.31
   5  11   1  263.03   38.01
  -5  11  -1  266.40   39.70
  -5 -11   1  303.03   36.38
  -5 -11   1  279.37   40.07
   5 -11  -1  294.00   39.40
   5  11  -2  197.86   35.57
  -5 -11  -2  241.83   27.11
   5  11  -2  199.63   26.95
  -5 -11  -2  207.83   30.53
   5 -11   2  223.65   26.37
   5 -11   2  195.78   30.99
   5 -11  -2  223.90   30.88
   5 -11  -2  200.89   28.28
  -5 -11   2  191.82   29.65
  -5 -11   2  207.04   26.29
  -5  11  -2  211.87   30.07
   5  11   2  147.77   30.34
   5 -11  -2  261.07   42.79
   5  11   2  173.31   28.87
  -5 -11  -3  244.03   61.99
   5  11  -3  265.88   33.86
  -5 -11  -3  289.27   34.77
  -5 -11  -3  258.03   37.84
  -5 -11  -3  248.29   34.10
   5 -11   3  282.87   40.15
   5 -11   3  254.93   33.24
   5  11  -3  219.18   41.18
   5  11   3  265.77   36.68
  -5  11  -3  242.80   37.05
  -5 -11   3  292.79   37.51
   5 -11  -3  314.89   39.41
  -5 -11   3  265.88   33.47
   5 -11  -3  293.96   50.92
   5 -11  -3  251.03   34.49
   5  11  -4  193.44   33.20
  -5 -11  -4  147.68   22.47
  -5 -11  -4  189.93   24.27
   5 -11   4  190.33   21.84
   5  11  -4  157.43   22.08
   5 -11   4  145.98   30.01
  -5 -11  -4  103.55   44.92
  -5 -11  -4  176.08   26.77
  -5 -11   4  161.61   25.06
   5  11   4  158.07   24.80
   5 -11  -4  191.88   36.76
  -5 -11   4  116.34   28.40
  -5  11  -4  186.72   29.07
  -5 -11   4  177.14   21.96
   5 -11  -4  145.70   28.67
   5 -11   5  273.19   40.19
  -5 -11  -5  271.07   39.13
  -5 -11  -5  270.08   34.97
   5 -11   5  270.25   34.09
  -5 -11  -5  296.27   37.98
  -5 -11  -5  345.07   59.42
   5  11  -5  257.03   34.31
  -5 -11  -5  215.03   59.97
   5 -11   5  276.31   48.50
   5 -11  -5  253.81   43.42
  -5 -11   5  229.75   37.07
  -5 -11   5  247.73   47.19
  -5 -11   5  254.86   34.26
   5  11   5  280.01   38.04
   5 -11  -5  326.34   52.09
  -5  11  -5  293.34   40.30
   5 -11   6   82.03   12.39
   5 -11   6   56.86   24.45
  -5 -11  -6   83.87   39.12
  -5 -11  -6   62.73   12.28
   5  11  -6   35.05   16.65
  -5 -11  -6   88.72   19.20
  -5 -11  -6   58.85   30.57
   5  11  -6   71.38   11.94
  -5 -11  -6   61.93   16.83
   5  11   6   96.08   20.08
   5 -11  -6   75.13   20.18
   5 -11  -6   67.35   12.84
  -5  11  -6   53.20   19.48
  -5 -11   6   59.25   14.51
  -5  11  -6   68.70   11.47
  -5 -11   6   15.64   17.65
   5 -11  -6  108.98   30.52
  -5 -11   6   74.75   12.18
   5  11  -7   88.39   14.69
  -5 -11  -7  128.36   25.71
  -5 -11  -7  104.61   17.49
  -5 -11  -7   68.74   42.93
  -5 -11  -7  133.40   26.25
   5  11  -7   69.34   24.01
  -5 -11  -7  111.46   39.24
  -5 -11   7   51.67   27.25
   5 -11  -7  105.95   17.87
  -5 -11   7   99.67   15.02
   5 -11  -7   91.74   33.04
  -5  11  -7  118.64   14.62
  -5  11  -7   99.61   23.29
   5  11   7  144.29   32.13
   5 -11   8   40.12   30.75
  -5 -11  -8   74.98   19.96
   5  11  -8   65.80   26.14
  -5 -11  -8   83.08   43.10
   5  11  -8   50.34   10.35
  -5 -11  -8   -4.34   28.58
  -5 -11  -8   44.25   10.39
   5 -11  -8   53.24   11.49
  -5  11  -8   63.58   10.08
  -5 -11   8   56.62   12.76
  -5 -11   8   28.52   22.94
   5 -11  -8   62.35   27.66
  -5  11  -8   19.58   20.22
   5  11  -9   62.26   23.95
  -5  11   9  -13.86   60.01
  -5 -11  -9  102.17   17.43
   5 -11   9  116.40   52.71
  -5 -11  -9    5.68   40.64
   5  11  -9  103.31   15.29
  -5  11  -9  106.27   14.69
  -5  11  -9  174.05   38.72
   5 -11  -9   87.35   34.85
   5 -11  -9  112.16   18.65
   6  11   0   13.37   10.43
  -6 -11   0    1.33    1.52
  -6 -11   0   -1.84    7.18
   6 -11   0    0.41    4.03
  -6 -11   0    5.39    4.32
   6 -11   0   -3.76    5.58
   6  11   0   -2.24    1.97
   6 -11   0   -1.92    1.71
   6  11  -1   -3.53    1.62
  -6 -11  -1   -6.29    8.41
  -6 -11  -1    3.12    2.64
   6  11  -1   14.36   10.17
  -6 -11  -1   -1.81    1.32
  -6 -11  -1   12.77    6.66
   6 -11   1   -0.46    1.81
   6 -11   1   -6.42    6.78
   6 -11   1    0.29    4.97
   6 -11  -1   -1.38    3.95
  -6 -11   1   -0.58    3.86
   6  11   1    1.09    9.41
  -6 -11   1   -1.42    8.61
   6  11   1    2.94    2.75
  -6  11  -1   15.00    7.59
   6 -11  -1  -18.11   14.73
   6 -11  -1   -8.90    5.23
  -6 -11   1   -1.19    1.42
   6  11   1   -0.03    3.12
   6 -11  -1    3.30    3.07
   6 -11   2    0.21    4.71
   6 -11   2   -2.72    8.90
  -6 -11  -2   -6.82    3.30
   6  11  -2   20.61   10.99
  -6 -11  -2    5.56    2.50
   6  11  -2   -2.69    2.41
   6 -11   2    5.57    2.10
  -6 -11  -2   -1.18    2.69
  -6 -11  -2  -11.32    9.71
   6 -11  -2    1.78    7.92
  -6 -11   2    3.65    2.43
  -6 -11   2    5.53    4.94
   6  11   2   16.56    5.50
  -6  11  -2   -1.33    6.75
  -6 -11   2    0.68    8.30
   6 -11  -2   -1.10    3.34
   6  11   2    2.23    4.02
   6 -11  -2   -0.08   14.72
   6 -11   3   13.11    6.77
   6  11  -3   -0.87    2.68
   6  11  -3   -9.55   10.76
  -6 -11  -3    5.53    6.66
   6 -11   3    9.22   11.17
  -6 -11  -3    6.06    3.21
   6 -11   3    3.55    2.37
  -6 -11  -3  -13.78   28.94
  -6 -11  -3    1.95    3.09
  -6 -11  -3    8.47   14.29
  -6 -11   3    6.39    5.70
   6 -11  -3  -14.49    8.88
  -6 -11   3    5.56    2.93
  -6  11  -3   14.15    8.41
   6 -11  -3    4.32    3.89
  -6 -11   3   -2.83   10.96
   6 -11  -3   -9.85   14.64
   6  11   3   -4.82    4.83
  -6 -11  -4   -0.61    3.07
   6 -11   4    8.60    5.07
   6 -11   4    4.04   13.61
   6  11  -4    5.44    3.32
   6  11  -4    8.29   11.06
  -6 -11  -4   10.63   31.67
  -6 -11  -4   15.09    4.12
  -6 -11  -4    6.35    5.35
   6 -11   4    0.28    1.99
  -6  11  -4    5.29    8.27
   6 -11  -4   -7.24   14.15
  -6 -11   4    1.60    3.71
  -6 -11   4    3.60   13.67
   6  11   4   -1.74    4.40
  -6 -11   4   -2.06    2.39
   6 -11  -4    6.72   11.33
  -6 -11  -5  -17.62   33.96
  -6 -11  -5   11.86    4.49
  -6 -11  -5   12.00    8.15
   6  11  -5   13.31   11.09
   6  11  -5    1.23    2.75
   6 -11   5   -0.44    2.39
  -6 -11  -5   14.71   18.62
  -6 -11  -5    0.95    2.73
   6  11   5   -6.55    3.32
  -6  11  -5    1.21    9.30
   6 -11  -5   11.73   17.52
  -6 -11   5    3.07    4.42
  -6 -11   5   -2.20    2.36
  -6 -11  -6    4.88    3.55
  -6 -11  -6   21.80    6.86
   6  11  -6    3.91    3.78
  -6 -11  -6   38.38   38.71
  -6 -11  -6    1.00    5.57
   6 -11   6    1.55    2.71
   6  11  -6    0.32   14.36
  -6 -11  -6   -5.92   22.67
  -6 -11   6   22.63   28.76
  -6 -11   6   13.65    5.85
   6 -11  -6  -10.79   19.21
  -6  11  -6    4.74    2.51
   6 -11  -6   10.28    5.07
  -6 -11   6    3.05    3.51
  -6  11  -6  -13.30   12.07
  -6 -11  -7   47.39   39.67
  -6 -11  -7   11.35    7.39
   6  11  -7    0.90    3.47
   6  11  -7    4.67   17.47
   6 -11   7   -2.06   28.03
  -6 -11  -7   15.55    9.98
  -6 -11  -7    3.67    4.31
  -6 -11  -7  -19.89   25.51
  -6  11  -7    8.00    3.76
   6 -11  -7    8.44   20.39
  -6 -11   7    6.03   19.75
  -6  11  -7   10.19   13.66
   6 -11  -7    3.35    3.57
  -6 -11   7   -0.11    3.70
   6 -11   8   54.18   37.20
   6  11  -8   33.81   19.35
  -6 -11  -8   -3.78   32.39
   6  11  -8    2.48    3.42
  -6 -11  -8   -1.24   39.28
  -6 -11  -8    5.78    4.43
  -6 -11  -8   -2.62    8.23
   6 -11  -8    4.89    4.35
  -6 -11   8   11.57    6.38
  -6  11  -8    7.35   16.79
  -6  11  -8    5.16    3.62
  -6 -11   8    3.87    4.71
  -6 -11   8    3.80   23.42
   6 -11  -8  -18.99   25.94
  -6 -11  -9   23.84   10.64
  -6 -11  -9    3.63   25.86
  -6 -11  -9   66.98   48.28
   6  11  -9    0.44    3.41
   6  11  -9   10.34   24.72
   6 -11   9  -66.87   43.30
  -6 -11  -9    2.64    4.01
   6 -11  -9    4.84    3.86
  -6  11  -9  -26.78   18.83
  -6 -11   9   15.23   36.87
  -6  11  -9    0.43    3.26
   6 -11  -9  -35.78   31.41
  -6 -11   9    6.02    5.37
  -7 -11   0    6.72    6.05
  -7 -11   0   -1.34    8.95
   7 -11   0   -2.13    3.15
  -7 -11   0   14.34    3.29
   7  11   0   -9.03   12.29
   7 -11   0   13.74    4.00
   7  11   0    6.56    4.22
   7  11  -1  120.68   19.46
  -7 -11  -1  139.90   18.01
   7  11  -1  151.31   27.78
  -7 -11  -1  103.27   25.67
   7 -11   1  157.64   18.59
  -7 -11  -1  140.83   18.43
  -7 -11  -1  149.99   28.26
   7 -11   1  147.17   23.23
  -7  11  -1  139.21   21.86
  -7 -11   1  203.81   32.71
   7  11   1  155.07   23.25
  -7 -11   1  119.89   25.13
   7 -11  -1  164.99   22.59
   7  11   1  110.45   20.05
  -7 -11   1  148.54   18.09
   7  11  -2  125.15   26.30
   7 -11   2  125.45   14.94
   7 -11   2   97.51   20.70
  -7 -11  -2   87.92   22.90
  -7 -11  -2  189.14   32.26
   7 -11   2  106.89   22.12
   7  11  -2   94.24   15.75
  -7 -11  -2  127.96   14.75
  -7 -11  -2   83.56   44.36
  -7 -11  -2  109.71   15.08
  -7 -11   2  113.55   22.40
   7 -11  -2   98.22   21.23
   7 -11  -2  130.20   18.11
  -7  11  -2   99.16   19.05
   7  11   2   65.51   19.33
   7 -11  -2  130.94   18.88
  -7 -11   2  119.47   14.73
   7  11   2   77.73   18.81
  -7 -11   2  106.60   24.20
  -7 -11  -3  217.82   28.93
   7 -11   3  249.99   35.33
  -7 -11  -3  243.48   28.83
   7 -11   3  240.94   39.00
  -7 -11  -3  200.04   34.38
   7  11  -3  206.70   39.10
   7  11  -3  209.71   29.50
  -7 -11  -3  168.93   38.40
   7 -11   3  243.03   28.75
  -7 -11  -3  149.06   55.16
   7 -11  -3  237.44   33.54
  -7 -11   3  332.60   40.17
  -7  11  -3  205.61   32.96
   7 -11  -3  220.28   36.78
   7 -11  -3  223.39   30.65
  -7 -11   3  224.88   28.65
  -7 -11   3  217.03   33.35
   7  11  -4   69.90   11.60
  -7 -11  -4   72.08   18.76
   7 -11   4   78.76    9.50
  -7 -11  -4   57.28   26.62
  -7 -11  -4   79.42   10.07
  -7 -11  -4   63.05    9.52
   7 -11   4   53.76   21.53
  -7 -11  -4   39.22   39.13
   7  11  -4   13.06   18.08
  -7 -11   4   31.47   16.67
   7 -11  -4   43.27   16.33
  -7 -11   4   39.07   13.38
   7 -11  -4   52.53   19.03
  -7  11  -4   55.73   15.29
  -7 -11   4   67.65    9.27
   7 -11   5   99.56   13.42
  -7 -11  -5   94.55   13.53
   7  11  -5   56.68   22.21
  -7 -11  -5  125.53   34.66
  -7 -11  -5  116.27   14.96
  -7 -11  -5   87.04   41.76
   7  11  -5   98.44   14.00
  -7 -11  -5  125.59   27.49
   7 -11  -5   48.03   20.89
   7 -11  -5   82.31   13.90
  -7 -11   5   62.29   23.37
  -7 -11   5  105.24   13.68
   7 -11  -5  126.90   27.67
  -7 -11   5  111.97   21.70
  -7 -11  -6   73.15   11.72
  -7 -11  -6  115.85   24.83
   7  11  -6   75.57   11.88
  -7 -11  -6   65.05   42.79
   7 -11   6   73.55   13.25
   7  11  -6  104.41   25.94
  -7 -11  -6   93.34   16.12
   7 -11  -6   49.93   25.14
  -7 -11   6   76.75   11.80
  -7  11  -6   46.51   19.25
   7 -11  -6   93.96   12.83
  -7 -11   6   58.91   21.52
  -7 -11   6  127.41   22.85
  -7 -11  -7   98.74   48.97
  -7 -11  -7  104.42   15.99
  -7 -11  -7  151.51   30.16
   7  11  -7  124.25   16.82
  -7 -11  -7  142.31   23.19
   7 -11   7   66.06   37.78
   7  11  -7  115.82   29.45
  -7 -11  -7   -4.63   37.28
  -7 -11   7  110.80   16.45
   7 -11  -7  102.10   34.69
   7 -11  -7  100.22   27.19
   7 -11  -7  123.89   17.30
  -7  11  -7   85.91   25.79
  -7 -11   7  153.37   21.26
  -7 -11  -8   10.27   46.67
  -7 -11  -8   32.39   11.70
   7  11  -8   23.56    7.23
  -7 -11  -8   -7.15   31.24
  -7 -11  -8   57.11   18.49
  -7 -11  -8   28.71    6.94
   7 -11   8   21.56   41.68
   7  11  -8   22.37   22.09
  -7 -11   8   37.69    8.71
   7 -11  -8   40.50    9.53
  -7 -11   8   26.98   11.18
  -7  11  -8   29.56   19.28
   7 -11  -8    5.08   25.44
   7 -11  -8  -25.29   22.54
   8 -11   0    5.95    5.37
   8  11   0    3.80    3.56
   8 -11   0    0.47    2.31
  -8 -11   0    6.98    5.63
   8  11   0   17.75   15.67
  -8 -11   0   -0.06    9.82
   8  11  -1   28.03   16.45
   8 -11   1    3.46    2.15
   8 -11   1    3.67    6.72
   8  11  -1   -0.13    3.57
  -8 -11  -1   -5.53   10.38
  -8 -11  -1    5.21    7.21
   8 -11  -1    6.59    3.62
  -8 -11   1    4.97    9.26
   8  11   1    8.22    3.45
  -8 -11   1    7.94    5.23
   8 -11  -1    3.43    5.44
  -8 -11  -2    6.34    6.23
  -8 -11  -2   -3.32   11.81
   8 -11   2    7.34    1.98
  -8 -11  -2    0.95    1.63
   8  11  -2    7.25   16.17
  -8 -11  -2   16.21   38.21
   8  11  -2   -0.66    3.07
   8  11   2   13.30    5.11
  -8 -11   2  -15.91   10.33
   8 -11  -2    3.86    5.18
  -8 -11   2   12.67    6.50
  -8 -11  -3    0.54    1.59
  -8 -11  -3   -5.83   37.13
  -8 -11  -3    0.04    4.99
  -8 -11  -3   -0.47   14.60
  -8 -11  -3    2.00    1.45
   8  11  -3    4.33   16.30
   8 -11   3   -2.73    1.46
   8  11  -3    1.10    2.77
   8 -11   3    1.83   16.16
  -8  11  -3    4.71    8.54
  -8 -11   3    8.60   15.22
   8 -11  -3   -4.19    3.11
  -8 -11   3    1.27    3.76
   8  11  -4   16.65   19.01
  -8 -11  -4    6.85    7.78
  -8 -11  -4   13.42   38.14
  -8 -11  -4    0.89    1.62
   8  11  -4    4.54    3.74
  -8 -11  -4   -0.90    1.87
   8 -11   4    7.48    3.26
  -8 -11  -4   10.48   20.35
   8 -11   4   -5.08   21.50
   8 -11  -4    0.11   11.75
   8 -11  -4    1.45    2.69
   8 -11  -4   20.41   12.13
  -8 -11   4   19.92    8.97
  -8 -11   4    4.32   15.60
  -8  11  -4   14.50   11.07
  -8 -11  -5  -69.26   36.64
  -8 -11  -5  -26.32   28.50
  -8 -11  -5    3.51    2.70
   8  11  -5    4.49    3.83
   8 -11   5   38.24   28.92
  -8 -11  -5   23.84   11.70
  -8 -11  -5    2.87    2.63
   8 -11   5    2.46    2.79
   8  11  -5    4.81   17.45
  -8 -11   5  -19.09   17.10
  -8  11  -5   -2.20   11.95
   8 -11  -5   -9.09   13.99
  -8 -11   5   -1.42    4.37
   8 -11  -5   15.68   15.65
  -8 -11   5    2.15    2.33
   8 -11  -5    5.72    3.11
   8  11  -6    1.90    3.64
  -8 -11  -6   11.92    9.48
  -8 -11  -6    1.60    2.60
  -8 -11  -6   14.13   29.98
  -8 -11  -6    7.67    3.76
   8 -11   6   22.07   31.80
  -8 -11  -6  -41.02   39.32
   8  11  -6   25.66   18.52
  -8  11  -6    6.45   14.26
  -8 -11   6   11.19    5.08
  -8 -11   6  -30.34   23.42
   8 -11  -6  -14.48   16.65
   8 -11  -6    3.71    4.24
  -8 -11   6    1.81    2.80
   8 -11  -6  -10.42   17.11
  -8 -11  -7  -40.44   44.47
   8  11  -7    5.98    3.94
  -8 -11  -7    2.50    2.72
  -8 -11  -7   56.84   41.59
   8  11  -7  -26.54   22.02
  -8 -11  -7    6.34    4.78
  -8 -11  -7    1.96    7.07
   8 -11  -7   21.04   25.79
  -8 -11   7   -4.94   24.86
   8 -11  -7   -1.91    3.27
   8 -11  -7   -9.05   22.40
  -8 -11   7    0.48    5.65
  -8  11  -7   23.37   18.71
  -8 -11   7   -0.88    1.89
   9 -11   0   75.67   11.01
   9  11   0   76.82   15.00
   9 -11   0   91.78   22.25
  -9 -11   0   92.30   23.13
   9  11  -1  109.68   26.09
  -9 -11  -1   26.50   45.92
  -9 -11  -1   98.06   22.79
  -9 -11  -1  173.04   32.53
   9  11   1   89.54   18.03
   9 -11  -1   78.15   13.28
  -9 -11   1  161.07   30.88
  -9 -11   1  102.60   22.65
   9 -11  -1  193.56   29.52
   9 -11   2   23.10    4.10
   9  11  -2   13.48    5.35
  -9 -11  -2   23.46   43.45
  -9 -11  -2   17.73   10.34
   9  11  -2   19.36   19.39
  -9 -11  -2    1.92   14.74
   9  11   2   10.46    5.81
   9 -11  -2   16.84    8.35
  -9 -11   2   14.03    9.78
  -9 -11   2   43.88   17.35
   9  11  -3   41.34   23.48
  -9 -11  -3    7.90   19.17
  -9 -11  -3  102.12   47.73
  -9 -11  -3   57.57   20.11
   9 -11   3   71.04    9.28
   9  11  -3   74.80   12.42
  -9 -11   3   30.97   20.86
   9 -11  -3   59.07   13.85
  -9 -11   3  109.93   22.57
   9  11  -4   28.49   23.22
  -9 -11  -4   34.40   26.03
   9  11  -4   65.73   10.73
  -9 -11  -4   80.18   19.21
   9 -11   4   42.40   30.05
  -9 -11  -4  -44.57   40.35
  -9 -11   4   63.13   16.88
  -9  11  -4   29.13   13.21
  -9 -11   4   40.98   21.82
   9 -11  -4   58.32   12.52
  -9 -11  -5  123.34   51.55
  -9 -11  -5  122.03   27.28
   9  11  -5   92.89   13.35
   9 -11   5   31.10   40.42
   9  11  -5   90.12   29.64
   9 -11   5   98.32   12.84
  -9 -11  -5    3.06   33.39
  -9 -11   5   48.63   27.25
  -9  11  -5   55.25   19.61
   9 -11  -5   64.07   20.26
  -9 -11   5  102.09   21.82
   9 -11  -5   91.80   13.26
   9 -11  -5   67.78   20.31
  -9 -11  -6  -19.43   58.11
  -9 -11  -6    8.02   12.63
   9  11  -6   33.22    7.21
  -9 -11  -6   33.25   40.19
   9  11  -6   33.00   28.41
   9 -11  -6   12.56   20.35
  -9 -11   6   20.98   11.48
   9 -11  -6   36.30    8.25
   9 -11  -6   39.95   18.64
  -9 -11   6   42.10   29.82
 -10 -11   0    3.21   13.11
 -10 -11   0  -56.80   49.16
  10 -11   0   11.03    2.94
 -10 -11   0    5.31    7.52
  10  11   0    8.17    4.18
 -10 -11  -1   -0.66    6.99
  10  11  -1   -3.85    3.03
  10 -11   1    3.22    1.88
 -10 -11  -1  -28.36   46.13
 -10 -11  -1  -21.84   14.34
 -10 -11   1   13.44    7.14
 -10 -11   1    7.67   14.63
  10 -11  -1    0.28    2.67
  10  11   1   -0.89    4.08
 -10 -11  -2  -20.26   16.34
  10 -11   2    2.25    1.89
  10  11  -2   -4.96    2.64
 -10 -11  -2    6.67    8.54
 -10 -11  -2  -33.86   47.46
  10  11  -2   29.00   23.29
  10 -11  -2    1.56    6.39
  10  11   2    5.24    4.34
 -10 -11   2    3.40    5.49
 -10 -11   2  -30.93   15.25
  10  11  -3    0.84    3.73
 -10 -11  -3   22.03   19.35
  10 -11   3    1.91    2.45
 -10 -11  -3   51.76   45.55
  10  11  -3   -3.35   23.67
 -10 -11  -3    9.02    6.72
  10 -11  -3    2.62    5.62
 -10 -11   3   34.71   21.95
 -10 -11   3   -2.88    5.48
  10  11  -4    3.81    4.08
  10  11  -4    7.07   26.55
 -10 -11  -4    9.36    6.69
 -10 -11  -4   24.37   23.96
  10 -11   4    6.85    3.51
 -10 -11   4   -4.93    4.18
  10 -11  -4    0.94    3.02
 -10 -11   4  -22.09   22.26
  10 -11  -4    7.49    4.55
 -11 -11   0   17.08   13.92
 -11 -11   0   37.97   17.80
  11  11   0   10.62    7.15
  11 -11   0   26.73    4.53
  11  11  -1   30.38   10.71
 -11 -11  -1   43.26   18.85
 -11 -11  -1   67.02   19.09
  11 -11   1   60.06    7.54
 -11 -11   1   49.11   20.62
  11  11   1   40.48   11.45
 -11 -11   1   84.24   23.54
  11 -11  -1   54.80    9.27
   0 -12   0 2753.17  352.23
   0 -12   0 2746.57  348.77
   0  12   0 3137.96  355.42
   0 -12   1  467.08   53.20
   0 -12  -1  522.65   61.65
   0  12  -1  412.70   57.34
   0 -12  -1  423.81   54.18
   0 -12   1  411.53   56.74
   0  12  -1  359.62   53.35
   0 -12   2  532.35   67.66
   0 -12  -2  466.14   65.05
   0  12  -2  518.59   63.72
   0  12   2  461.63   68.01
   0 -12   2  558.51   63.22
   0  12  -2  468.58   66.99
   0 -12   3  602.41   70.74
   0  12  -3  548.82   71.00
   0 -12  -3  407.66   87.67
   0  12  -3  546.31   74.81
   0 -12   3  542.12   75.68
   0 -12  -3  627.58   72.21
   0 -12  -4  489.88   89.16
   0 -12  -4  525.02   75.95
   0  12  -4  563.51   73.17
   0  12  -4  567.56   68.28
   0 -12   4  436.10   72.96
   0 -12   4  596.37   68.18
   0 -12  -4  544.99   69.16
   0 -12   5   26.88   14.16
   0  12  -5   44.29   15.80
   0 -12   5   50.34    8.04
   0  12  -5   26.74    6.90
   0 -12  -5   68.13   29.81
   0 -12  -5   29.74   14.64
   0  12  -6   85.95   13.84
   0 -12  -6  116.54   18.22
   0 -12  -6   99.69   14.86
   0 -12  -6  177.20   56.81
   0 -12  -6   58.97   20.98
   0 -12   6  108.12   14.13
   0 -12   6  171.69   36.92
   0  12  -7   13.19    4.67
   0 -12  -7   14.71    5.72
   0 -12  -7   11.92    6.20
   0 -12   7   13.96   19.59
   0 -12  -7   27.10   27.86
   0  12  -7   26.65   18.43
   0 -12   7   19.78    6.06
   0 -12  -8  250.24   53.74
   0  12  -8  188.45   35.69
   0  12  -8  177.58   24.30
   0 -12  -8  166.45   25.39
   0 -12   8  251.30   49.77
   0 -12   9   40.40   35.63
   0  12  -9   28.03   20.35
   0 -12  -9   -0.28   46.51
   0  12  10  251.97  101.86
   0 -12  10  123.26   44.16
   0 -12 -10   67.96   14.21
   0  12 -10   54.88   30.39
   0 -12 -10    2.24   85.91
   0  12 -10   63.44   12.91
  -1  12   0    1.53    5.83
   1  12   0    0.42    5.95
  -1 -12   0    2.66    2.42
   1 -12   0    3.84    6.64
   1  12   0    0.29    1.90
   1 -12   0    9.90    3.82
  -1 -12   0    7.28   10.28
  -1  12   0    4.54    3.09
  -1 -12  -1   -7.00    8.98
  -1  12   1    2.34    6.96
  -1 -12  -1    1.04    2.85
   1  12  -1   -1.24    2.41
   1 -12   1    1.99    2.01
   1  12  -1    1.78    8.41
   1 -12   1    1.80    4.93
  -1 -12   1    2.46    2.17
  -1  12  -1    1.11    2.57
  -1  12  -1   -5.98    7.68
  -1 -12   1    2.58    6.66
   1 -12  -1    3.08    3.22
   1 -12  -1   -6.00    5.98
   1  12   1  -10.46    6.24
   1  12   1    3.31    2.69
  -1 -12  -2   -9.61    8.34
  -1  12   2  -10.63    6.19
   1 -12   2    1.98    2.27
   1 -12   2   -0.49    4.80
  -1 -12  -2    1.48    2.76
   1  12  -2   -2.84    7.52
  -1 -12  -2   -1.76    3.40
   1  12  -2    1.75    2.79
  -1  12  -2    3.83    5.80
   1  12   2   -1.12    8.92
  -1 -12   2   14.45    8.73
   1 -12  -2    2.35    4.07
  -1 -12   2    1.21    2.33
   1 -12  -2    5.84    8.55
  -1  12  -2    0.38    2.85
   1  12  -3   -0.95    2.31
   1 -12   3   -0.52    2.14
   1 -12   3   -3.74    7.16
  -1 -12  -3  -32.60   21.21
  -1 -12  -3    0.47    9.90
  -1 -12  -3    2.69    3.37
  -1 -12  -3   -5.90    3.13
   1  12  -3    0.17    7.46
  -1 -12   3   -1.69    1.53
   1 -12  -3    6.24    5.75
   1 -12  -3    1.43   10.18
  -1 -12   3    3.02    6.95
  -1  12  -3   -2.60    5.44
   1 -12  -3   -5.83   18.38
  -1  12  -3    0.80    2.50
   1 -12  -3    0.93    2.43
  -1 -12  -4    9.70    6.96
   1 -12   4    2.49   11.04
   1  12  -4    3.57    6.84
  -1 -12  -4   16.16   12.73
   1  12  -4    3.08    2.75
   1 -12   4    0.31    2.26
  -1 -12  -4   20.20   26.28
  -1 -12  -4    0.77    3.15
   1 -12  -4   12.13   20.13
  -1 -12   4   -1.43    1.88
  -1  12  -4    2.18    2.74
  -1 -12   4   -3.19   10.82
   1 -12  -4   26.94   13.10
  -1  12  -4    5.02    7.34
   1 -12  -4    3.04    1.93
   1 -12   5    1.92    2.43
   1  12  -5   17.19   15.56
  -1 -12  -5  -40.30   33.21
  -1 -12  -5    0.38    3.11
  -1 -12  -5    0.75    3.02
   1 -12   5   -6.00   18.39
   1  12  -5    0.76    2.46
  -1 -12  -5    7.39    6.29
  -1 -12  -5   -8.69   10.71
   1 -12  -5    1.67    2.95
  -1  12  -5  -15.14    9.35
  -1 -12   5    9.80   13.71
  -1 -12   5   -1.63    2.21
   1 -12  -5   -4.26   20.23
  -1  12  -5    1.39    2.61
   1 -12  -5   -4.34   11.85
  -1 -12  -6  -16.72   13.28
   1 -12   6   -2.97    1.56
  -1 -12  -6   -6.25   24.99
   1  12  -6   -2.52    2.06
  -1 -12  -6    0.14    3.71
   1 -12   6   11.37   17.50
   1  12  -6    0.81   12.37
  -1 -12  -6    2.02    3.31
  -1 -12   6    3.42    3.00
   1 -12  -6    0.35    3.43
  -1  12  -6    0.32    2.16
   1 -12  -6   13.53   13.05
  -1  12  -6   -0.33    8.43
   1 -12  -6    7.38   21.96
  -1 -12   6   -4.19   12.65
  -1 -12  -7   -3.32    2.99
  -1 -12  -7   -4.87   28.76
   1  12  -7   16.94   12.76
   1 -12   7   18.41   17.22
  -1 -12  -7    0.70    4.44
   1 -12   7   12.12    6.05
   1  12  -7    1.89    3.03
  -1  12  -7    2.73    3.20
  -1 -12   7   -6.45   14.91
  -1  12  -7    3.70   14.75
   1 -12  -7   -5.85   26.40
   1 -12  -7   -0.58    3.52
  -1 -12   7    5.45    3.23
   1 -12   8   45.24   34.05
  -1 -12  -8    0.14    3.98
   1  12  -8   -3.36   14.94
  -1 -12  -8   38.27   31.54
   1  12  -8    0.30    3.24
  -1 -12   8   29.53   27.16
  -1  12  -8   -1.55    2.67
  -1  12  -8    1.20   13.33
   1 -12  -8    8.30   35.78
   1 -12  -8   -4.98    3.13
  -1 -12  -9    7.44    5.13
   1  12  -9   -9.94   17.21
  -1  12   9   55.19   54.39
   1  12  -9   -2.86    3.05
   1 -12   9   19.98   55.08
  -1 -12  -9   26.12   41.36
  -1  12  -9   -0.36   17.01
  -1 -12   9   15.71   26.38
  -1  12  -9   -2.58    2.77
   1 -12  -9   34.69   29.39
   1 -12  -9    2.53    4.65
   1  12 -10   -1.55    3.48
  -1 -12 -10    4.08    4.46
   1 -12  10  -42.45   34.83
  -1  12  10    1.77   59.08
  -1 -12 -10 -120.12   84.42
   1  12 -10   -1.03   24.64
   1 -12 -10    0.03    3.80
  -1  12 -10   29.42   23.23
   1 -12 -10   56.71   46.34
  -1  12 -10   -4.83    3.00
  -1 -12  10   16.36   34.47
   2 -12   0  569.89   71.93
  -2 -12   0  629.26   68.67
   2 -12   0  550.35   68.87
   2  12   0  457.80   68.93
  -2  12   0  538.65   72.23
   2 -12   1  400.82   46.81
   2  12  -1  357.62   51.43
   2 -12   1  427.26   50.61
  -2 -12  -1  413.46   53.23
  -2 -12  -1  360.38   48.49
  -2 -12  -1  396.04   47.46
  -2  12   1  336.48   50.54
   2  12  -1  313.35   46.92
  -2 -12   1  374.61   46.41
  -2 -12   1  391.04   51.28
   2 -12  -1  432.76   51.81
  -2  12  -1  320.18   50.05
   2  12   1  322.71   51.19
   2 -12   2  665.68   76.37
  -2 -12  -2  654.44   78.25
   2  12  -2  595.52   76.73
  -2 -12  -2  573.76   78.29
   2 -12   2  562.31   79.82
  -2 -12   2  650.13   76.27
  -2 -12   2  644.75   81.25
   2  12   2  560.27   81.74
   2 -12  -2  652.45   81.98
  -2  12  -2  570.60   79.79
   2 -12   3  202.49   31.30
  -2 -12  -3  192.80   28.01
   2  12  -3  169.28   25.50
   2 -12   3  221.17   25.43
   2  12  -3  185.06   33.08
  -2 -12  -3  185.54   27.52
  -2 -12  -3  213.16   64.47
  -2 -12  -3  348.51   52.40
   2 -12  -3  202.22   34.06
  -2 -12   3  198.24   25.33
  -2  12  -3  191.63   25.75
   2 -12  -3  198.61   46.12
  -2  12  -3  206.34   30.06
  -2 -12  -4  236.48   63.59
  -2 -12  -4  387.39   49.63
   2 -12   4  283.03   36.13
  -2 -12  -4  290.50   38.66
  -2 -12  -4  301.32   40.31
   2 -12   4  263.67   42.58
   2  12  -4  282.32   36.34
   2 -12  -4  284.99   59.13
  -2 -12   4  299.88   43.65
   2 -12  -4  250.84   42.92
  -2 -12   4  280.29   36.20
  -2  12  -4  291.58   36.44
  -2  12  -4  258.70   40.59
   2 -12  -4  288.31   36.32
  -2 -12  -5  196.22   36.28
  -2 -12  -5  126.03   20.33
  -2 -12  -5  166.57   22.46
  -2 -12  -5  248.51   66.81
   2 -12   5  121.29   29.48
  -2 -12  -5  139.21   27.56
   2  12  -5  229.76   39.98
   2  12  -5  128.80   19.59
   2 -12   5  151.47   19.72
   2 -12  -5  159.97   31.81
   2  12   5  164.22   21.78
  -2  12  -5  155.77   26.33
  -2  12  -5  135.04   19.61
   2 -12  -5  106.05   40.09
  -2 -12   5  153.27   19.76
  -2 -12   5  222.28   40.94
  -2 -12  -6  240.10   42.68
  -2 -12  -6  333.18   40.58
   2 -12   6  209.58   47.83
  -2 -12  -6  278.25   63.71
  -2 -12  -6  472.59   72.08
   2 -12   6  308.41   39.21
   2  12  -6  284.51   49.60
   2  12  -6  334.70   39.34
  -2 -12   6  315.08   39.44
   2  12   6  314.64   40.87
  -2  12  -6  328.93   39.18
   2 -12  -6  271.62   55.07
   2 -12  -6  283.99   40.02
  -2  12  -6  268.36   45.65
  -2 -12   6  318.47   54.44
   2 -12  -6  304.36   47.64
  -2 -12  -7   63.66   39.90
   2 -12   7   64.53   26.71
  -2 -12  -7  128.52   16.20
  -2 -12  -7  141.30   22.35
   2  12  -7   66.08   21.73
   2  12  -7   84.71   13.83
  -2 -12  -7   71.49   38.33
  -2 -12   7   97.91   29.02
   2 -12  -7  121.45   18.46
   2 -12  -7   87.83   32.85
  -2  12  -7   86.66   13.84
  -2 -12   7  115.04   14.78
  -2  12  -7   59.94   19.98
   2  12   7  103.40   15.76
  -2 -12  -8  207.96   66.13
  -2 -12  -8  142.70   25.03
   2 -12   8  236.65   54.60
  -2 -12  -8  143.62   20.57
   2  12  -8  150.69   19.46
  -2  12  -8  121.83   18.80
  -2  12  -8   93.41   30.51
  -2 -12   8  128.69   38.15
   2 -12  -8  132.05   48.80
   2 -12  -8  109.13   21.69
   2  12   8  157.74   21.34
  -2 -12  -9   33.29    8.52
  -2 -12  -9   -6.42   41.71
  -2  12   9   11.43   57.21
   2  12  -9   -9.57   18.58
   2  12  -9   22.34    6.50
   2 -12   9   19.55   28.57
   2 -12  -9   23.85    7.66
   2  12   9   12.45    8.31
   2 -12  -9   10.86   27.13
  -2  12  -9   75.20   24.22
  -2 -12   9   30.43   32.24
  -2  12  -9   16.56    5.86
  -2 -12 -10   44.41   11.10
  -2 -12 -10  106.86   55.97
  -2  12  10  -58.15   57.30
   2  12 -10   32.83   26.16
   2  12 -10   45.34   10.15
  -2  12 -10   52.23    9.60
  -2 -12  10   -9.07   31.87
   2 -12 -10   41.16   10.52
  -2  12 -10    1.52   25.09
   2  12  10   50.62   13.42
   2 -12 -10    8.06   37.82
  -3 -12   0    8.62    4.60
   3  12   0    5.28    6.62
   3 -12   0   -3.46    5.34
   3  12   0    4.79    3.64
  -3  12   0   -1.81    5.93
   3 -12   0    2.33    2.82
  -3 -12   0   -2.24    7.02
  -3 -12   0    9.66    3.15
  -3 -12  -1    2.35    3.24
   3  12  -1    1.82    2.83
   3 -12   1    3.84    2.51
  -3 -12  -1   -3.55    6.93
   3 -12   1    7.51    6.61
   3  12  -1    6.84   11.46
  -3 -12  -1    2.16    2.29
  -3  12   1   -0.45    6.04
  -3 -12   1    3.78    3.28
   3  12   1    5.78    8.24
  -3  12  -1    7.54    6.78
   3 -12  -1   -4.59    6.63
  -3 -12   1   12.11    6.25
  -3  12  -1    3.66    2.47
   3  12   1   -1.60    1.59
  -3 -12   1    1.01    1.85
   3 -12  -1   -0.67    2.72
  -3 -12  -2    0.87    2.72
  -3 -12  -2    0.99    3.04
  -3 -12  -2   -2.47   11.50
   3 -12   2    5.90    2.19
   3  12  -2   -1.01    2.24
   3  12  -2  -11.00    6.95
   3 -12   2   -1.84    5.99
  -3 -12   2    1.65    2.02
   3  12   2    0.94    2.41
   3 -12  -2   19.36   18.63
  -3  12  -2    4.01    2.24
   3 -12  -2    1.53    3.11
   3  12   2   -3.47    8.26
  -3  12  -2    4.28    6.64
   3 -12  -2    9.44    7.60
  -3 -12   2    4.78    6.74
   3 -12   3    0.38    1.56
   3 -12   3   -6.37    6.44
  -3 -12  -3   -0.16   24.82
  -3 -12  -3    4.14    3.62
  -3 -12  -3    4.82    3.69
   3  12  -3   -2.79    7.89
   3  12  -3   -3.09    1.70
  -3 -12  -3   26.47   17.41
  -3 -12   3    1.88    5.13
  -3  12  -3    1.58    2.63
   3 -12  -3  -11.07    7.34
  -3  12  -3    1.85    6.89
  -3 -12   3    1.61    1.69
   3 -12  -3   -4.40   19.78
  -3 -12  -4    4.24    5.30
   3  12  -4   -0.17    2.19
  -3 -12  -4   10.18   28.65
   3 -12   4   10.72   10.56
  -3 -12  -4    3.29   12.47
   3  12  -4   -8.29    7.24
  -3 -12  -4   -2.56    2.28
   3 -12   4   -0.58    1.61
  -3 -12  -4   -0.13    3.42
  -3 -12   4    0.92    2.28
   3 -12  -4   10.44   19.51
   3 -12  -4    4.74   10.06
  -3 -12   4  -10.41    9.10
   3  12   4   -3.30    2.53
  -3  12  -4    0.02    2.37
  -3  12  -4    1.77    6.81
  -3 -12  -5    1.59    4.86
  -3 -12  -5    3.17    5.53
   3  12  -5    1.99    2.64
  -3 -12  -5    5.11    3.70
  -3 -12  -5  -84.20   41.84
   3 -12   5    4.60    2.55
   3 -12   5    5.53   12.55
   3  12  -5    1.29   13.01
  -3 -12  -5   20.74   15.13
  -3  12  -5    5.47    8.70
  -3  12  -5    0.51    2.78
  -3 -12   5    0.42   11.53
   3 -12  -5  -11.93   18.91
   3 -12  -5   -5.41   10.45
  -3 -12   5   -0.83    2.64
   3  12   5    0.63    4.21
   3 -12   6    1.41    2.15
  -3 -12  -6   -0.37    7.21
  -3 -12  -6    3.63   26.85
  -3 -12  -6    7.09    6.23
   3  12  -6    0.85    3.03
   3  12  -6   -8.81    9.64
  -3 -12  -6   61.94   45.57
   3 -12   6    8.76   14.01
  -3 -12  -6    0.31    2.91
   3 -12  -6   -1.23    3.45
  -3  12  -6   11.18   12.21
  -3 -12   6    9.16    4.01
   3 -12  -6   -2.72   12.61
  -3  12  -6    4.87    3.36
  -3 -12   6   -2.62   12.48
   3  12   6    3.56    5.27
   3 -12  -6    4.56   19.57
  -3 -12  -7   -3.69    4.83
   3  12  -7   11.43   25.11
  -3 -12  -7  -17.97   30.63
  -3 -12  -7    6.91   16.52
   3 -12   7    2.19   19.67
  -3 -12  -7    1.91    7.93
   3  12  -7    7.54    4.14
  -3 -12  -7   -1.62    4.03
   3 -12  -7   -0.87    3.44
  -3 -12   7    2.75    3.42
   3  12   7    1.07    5.66
   3 -12  -7   32.56   27.38
  -3  12  -7    1.68   12.73
  -3  12  -7    3.19    3.63
  -3 -12   7   38.59   18.04
  -3 -12  -8   53.72   36.31
  -3 -12  -8    0.66    3.66
  -3 -12  -8    1.32   43.76
   3 -12   8    6.64   23.56
   3  12  -8   23.26   16.54
  -3 -12  -8    6.76    6.53
   3  12  -8    0.01    2.79
   3 -12  -8    9.91   28.88
  -3 -12   8    4.89   25.32
   3  12   8    0.86    5.72
   3 -12  -8   -3.63    2.55
  -3  12  -8   -0.42    2.79
  -3  12  -8  -30.12   14.82
  -3 -12  -9  -47.92   35.86
  -3 -12  -9    4.05    4.56
   3  12  -9   -3.63   19.63
   3  12  -9    3.51    4.22
   3  12   9   -4.11    5.04
   3 -12  -9   36.66   32.10
  -3 -12   9    3.24   29.24
  -3  12  -9    1.45   20.08
   3 -12  -9    4.82    4.90
  -3  12  -9    3.06    3.46
   3  12 -10    4.08   24.59
  -3 -12 -10    8.10    5.93
   3  12 -10   -0.12    3.36
  -3  12  10  -22.21   66.39
   3 -12  10   49.27   62.62
  -3 -12 -10  -16.97   43.38
   3 -12 -10  -13.80   35.02
   3  12  10   -2.33    6.22
  -3 -12  10   43.88   35.46
  -3  12 -10   17.67   25.69
   3 -12 -10    1.04    4.45
  -3  12 -10    0.80    3.89
   4  12   0  564.53   70.12
  -4 -12   0  585.29   72.20
  -4  12   0  472.74   71.65
  -4 -12   0  633.56   68.83
   4 -12   0  632.52   72.18
  -4 -12   0  512.04   73.77
   4 -12   0  483.80   69.13
   4  12   0  523.15   74.34
   4 -12   1  280.99   34.24
  -4  12   1  262.04   38.09
   4  12  -1  246.58   39.74
  -4 -12  -1  277.55   34.30
  -4 -12  -1  269.64   40.98
   4 -12   1  288.89   37.65
  -4 -12  -1  286.41   37.69
  -4 -12   1  214.01   38.43
  -4 -12   1  281.57   37.37
   4 -12  -1  237.71   37.33
  -4  12  -1  295.86   38.41
   4  12   1  233.97   39.93
   4  12  -2  328.52   43.75
   4 -12   2  243.22   40.19
   4 -12   2  306.52   36.42
   4  12  -2  270.77   36.87
  -4 -12  -2  283.84   37.27
  -4 -12  -2  276.83   39.76
  -4 -12  -2  267.39   44.29
  -4 -12   2  290.07   39.67
  -4  12  -2  298.81   40.52
  -4 -12   2  269.34   41.61
   4 -12  -2  319.11   41.69
  -4 -12   2  303.54   36.31
   4 -12  -2  230.79   52.26
   4 -12   3   76.68   10.46
   4  12  -3   76.80   10.98
  -4 -12  -3  107.33   19.66
  -4 -12  -3  103.97   13.24
  -4 -12  -3   45.83   36.29
  -4 -12  -3   45.68   17.26
   4  12  -3   87.80   19.69
   4 -12   3   72.01   17.99
  -4 -12   3   83.00   10.70
  -4  12  -3   59.70   15.74
   4 -12  -3   72.45   17.81
   4 -12  -3   69.99   28.30
   4  12   3   81.25   16.70
  -4  12  -3   63.91   10.54
  -4 -12   3   47.28   16.23
  -4 -12  -4  249.79   36.24
  -4 -12  -4  243.40   33.20
   4 -12   4  301.56   41.51
  -4 -12  -4  264.96   35.21
   4 -12   4  268.17   32.24
   4  12  -4  228.65   38.56
  -4 -12  -4  289.36   67.79
   4  12  -4  250.15   32.53
  -4 -12  -4  309.66   50.50
   4  12   4  248.71   35.10
  -4  12  -4  268.51   37.55
  -4 -12   4  194.72   40.03
  -4 -12   4  234.02   32.25
   4 -12  -4  270.05   39.96
   4 -12  -4  279.96   50.50
   4 -12   5  157.86   30.49
  -4 -12  -5   89.21   29.30
  -4 -12  -5  120.28   17.54
  -4 -12  -5  153.09   25.97
   4  12  -5  106.30   16.63
   4 -12   5  128.56   16.67
  -4 -12  -5  235.65   71.38
   4  12  -5  104.21   25.26
  -4 -12  -5  176.46   26.63
  -4  12  -5  102.55   16.49
   4 -12  -5  132.32   32.94
  -4 -12   5  122.82   16.80
  -4  12  -5  126.05   24.12
   4  12   5  148.04   20.05
  -4 -12   5   98.44   27.11
   4 -12  -5  160.60   27.92
   4  12  -6  238.13   41.66
  -4 -12  -6  273.95   35.54
  -4 -12  -6  236.10   31.75
   4 -12   6  254.42   30.88
  -4 -12  -6  287.53   36.99
   4 -12   6  269.90   48.69
  -4 -12  -6  226.77   57.58
   4  12  -6  258.61   31.08
  -4 -12  -6  172.33   41.15
   4 -12  -6  202.40   31.34
   4 -12  -6  182.35   45.00
   4 -12  -6  204.42   40.43
  -4 -12   6  188.61   44.26
  -4  12  -6  224.79   30.61
  -4  12  -6  251.48   38.78
  -4 -12   6  234.29   31.03
   4  12   6  242.08   33.69
  -4 -12  -7   48.62   10.67
   4  12  -7   31.20   17.38
  -4 -12  -7   53.18   16.73
   4  12  -7   51.34   10.31
  -4 -12  -7    7.17   34.92
  -4 -12  -7   56.32   16.30
   4 -12   7   64.75   25.59
  -4 -12  -7   35.89   24.79
   4  12   7   77.42   17.28
  -4  12  -7   68.52   10.96
  -4  12  -7   24.56   15.39
  -4 -12   7   51.08   10.33
  -4 -12   7   75.50   27.68
   4 -12  -7   60.28   26.45
   4 -12  -7   53.50   11.54
   4  12  -8   97.73   25.35
  -4 -12  -8   83.30   18.64
  -4 -12  -8   54.44   48.08
   4  12  -8   61.13   12.35
  -4 -12  -8   42.63   25.66
  -4 -12  -8   67.41   13.79
   4 -12  -8   55.77   12.91
   4  12   8   99.24   18.89
  -4  12  -8   39.60   20.30
   4 -12  -8   55.97   32.40
  -4  12  -8   79.58   10.92
  -4 -12   8   30.70   28.65
   4  12  -9   51.59   10.11
  -4 -12  -9   33.27    9.39
   4  12  -9   24.49   22.62
  -4 -12  -9   45.32   15.01
   4 -12   9    0.55   38.06
  -4 -12  -9   26.43   47.07
  -4 -12  -9   19.27   26.88
   4 -12  -9   44.70   10.74
   4 -12  -9   32.29   32.85
  -4  12  -9   39.22    8.63
  -4  12  -9   10.38   20.86
  -4 -12   9  -13.06   34.63
   4 -12  10   18.85   42.94
   4  12 -10   79.41   12.94
  -4 -12 -10   55.25   57.49
  -4 -12 -10   21.57   26.94
  -4 -12 -10   69.52   13.00
   4  12 -10   34.40   30.50
   4 -12 -10   74.93   14.77
   4 -12 -10   23.23   41.53
  -4  12 -10   51.33   10.84
  -4  12 -10   51.04   28.16
  -4 -12  10  -11.43   33.45
  -5 -12   0    1.56    4.19
   5  12   0    2.65    2.74
  -5 -12   0    2.44    1.76
   5  12   0   -1.27    9.24
   5 -12   0    1.02    2.23
  -5  12   0    6.35    7.41
   5 -12   0   -7.42    6.03
  -5 -12  -1    6.79    2.70
   5  12  -1   -7.06    9.34
   5 -12   1    4.97    2.00
  -5 -12  -1   -3.95   10.96
   5 -12   1   -4.58    5.76
   5  12  -1    5.09    3.94
  -5 -12  -1    1.66    3.90
   5  12   1    3.75    3.37
   5 -12  -1   -2.62    2.37
  -5  12  -1    1.20    7.19
  -5 -12   1    1.78    4.17
   5  12   1   10.92   10.84
   5 -12  -1    3.98    7.44
  -5 -12   1    2.36    2.08
  -5 -12  -2    7.73    5.97
   5  12  -2    2.60    9.46
   5  12  -2   -0.41    2.42
   5 -12   2    6.58    2.30
  -5 -12  -2   -9.99   10.51
   5 -12   2   -1.06    7.67
  -5 -12  -2    3.89    2.52
   5 -12  -2  -16.05    7.00
  -5  12  -2   -3.31    6.60
   5  12   2    0.52    3.44
  -5 -12   2    8.11    5.45
  -5 -12   2    3.16    2.32
   5  12   2    1.55    3.14
   5 -12  -2    5.10    4.71
  -5 -12   2    8.36    7.63
   5 -12  -2  -26.50   17.17
   5  12  -3   -1.58   10.24
  -5 -12  -3   12.47    4.26
  -5 -12  -3   42.35   36.38
  -5 -12  -3    2.62   12.50
  -5 -12  -3   -4.90    2.20
  -5 -12  -3   -5.80    3.34
   5 -12   3    3.06    9.86
   5  12  -3    1.46    2.88
   5 -12   3    3.03    1.99
   5 -12  -3    5.09    9.02
  -5 -12   3   -2.32    1.78
   5  12   3   -2.12    4.21
  -5 -12   3    9.59    4.97
  -5 -12   3   -1.43    7.35
   5 -12  -3    1.03    3.52
   5 -12  -3  -19.75   18.59
  -5  12  -3   -9.25    6.84
  -5 -12  -4    9.92    6.13
   5 -12   4   14.80   12.64
   5  12  -4   13.55   12.33
  -5 -12  -4   29.86   32.80
  -5 -12  -4    6.70    4.44
   5 -12   4    2.05    2.68
  -5 -12  -4  -15.28   14.61
   5  12  -4   -0.99    2.35
  -5 -12   4    4.26    4.15
  -5 -12   4   -5.40   10.38
  -5  12  -4    6.09    2.32
   5 -12  -4  -49.42   16.00
   5  12   4   16.14    8.65
   5 -12  -4   -8.33   10.75
  -5  12  -4    4.00    8.33
  -5 -12   4    3.23    2.97
  -5 -12  -5   11.15   32.43
  -5 -12  -5   -0.18   19.78
  -5 -12  -5    2.90    3.78
  -5 -12  -5    5.08    6.18
   5  12  -5    1.01    3.23
   5 -12   5    3.32   14.99
  -5 -12  -5   -5.87    3.16
   5  12  -5    4.38   10.57
   5 -12   5    7.73    3.24
  -5  12  -5    3.24    9.23
   5 -12  -5  -17.23   20.76
  -5 -12   5    3.45    3.26
  -5  12  -5    2.58    2.71
   5  12   5   -2.36    4.92
  -5 -12   5   10.71    6.43
  -5 -12   5    2.68   14.91
   5 -12  -5   -2.01   12.77
   5  12  -6    2.45    3.27
  -5 -12  -6   11.14   38.29
  -5 -12  -6   -7.52    4.28
   5 -12   6   -2.33    2.34
  -5 -12  -6    1.03    3.51
   5 -12   6   13.42   17.65
  -5 -12  -6   15.81    9.19
  -5 -12  -6   -3.17   21.88
   5  12  -6   -2.99   11.68
   5 -12  -6   14.00   19.71
  -5 -12   6    1.36    3.58
   5 -12  -6   -3.00    2.67
  -5 -12   6  -15.54   13.85
   5 -12  -6    5.08   13.40
  -5  12  -6   -6.45   11.59
  -5  12  -6    2.10    3.12
   5  12   6    8.86    7.39
   5  12  -7    1.07    3.08
  -5 -12  -7   -1.25    5.93
   5  12  -7    9.55   15.80
  -5 -12  -7  -51.94   35.29
  -5 -12  -7   -4.33    5.89
  -5 -12  -7   19.37   23.90
  -5 -12  -7    4.23    4.18
  -5  12  -7    3.90   12.71
  -5  12  -7    3.82    3.62
   5 -12  -7    3.30    3.83
  -5 -12   7    7.88   16.36
   5 -12  -7    6.59   24.93
  -5 -12   7    4.23    4.16
  -5 -12  -8   -0.49    6.97
   5  12  -8  -20.13   18.84
   5  12  -8    0.22    3.71
  -5 -12  -8  -47.65   42.88
  -5 -12  -8   35.89   30.52
   5 -12   8  -25.90   29.65
  -5 -12  -8   -0.04    3.79
   5 -12  -8    8.93    4.96
  -5 -12   8   -7.95   26.87
   5 -12  -8    9.06   26.10
  -5  12  -8    2.41    3.51
  -5  12  -8  -13.80   15.79
  -5 -12  -9   18.94   10.29
  -5 -12  -9  -15.55   30.23
   5  12  -9   13.77   19.89
   5  12  -9   10.08    5.24
  -5 -12  -9    6.42   48.71
   5 -12   9  -45.87   31.09
  -5 -12  -9    1.34    4.39
  -5  12  -9   44.95   23.61
  -5 -12   9  -58.49   26.70
  -5  12  -9    1.44    4.17
   5 -12  -9  -28.64   33.95
   5 -12  -9   11.08    5.66
   6 -12   0   92.24   14.11
   6  12   0   63.86   20.44
   6 -12   0  129.68   18.22
  -6 -12   0  126.48   24.24
  -6 -12   0  102.49   13.47
   6  12   0   99.98   17.95
   6 -12   0  113.70   18.22
  -6 -12   0   99.03   22.77
   6  12  -1   18.89   13.20
  -6 -12  -1   51.34    6.89
   6  12  -1   62.87   10.94
   6 -12   1  111.14   21.14
   6 -12   1   59.85    8.90
  -6 -12  -1   49.16   12.53
   6 -12   1   26.41   10.98
  -6 -12  -1   43.77   14.78
  -6  12  -1   40.06   12.25
  -6 -12   1   54.08    8.01
   6  12   1   26.04    9.09
   6 -12  -1   28.60   10.15
   6  12   1   37.93   15.35
  -6 -12   1   60.26   14.49
   6 -12  -1   26.61   21.39
   6 -12  -1   87.54   16.95
   6 -12  -1   40.44    8.85
  -6 -12   1   28.69   11.55
   6 -12   2  383.90   41.92
  -6 -12  -2  289.34   50.12
   6 -12   2  335.51   47.27
  -6 -12  -2  372.39   42.10
   6 -12   2  346.17   47.08
  -6 -12  -2  265.65   46.00
  -6 -12  -2  279.25   42.17
   6  12  -2  337.13   49.83
   6  12  -2  328.08   42.75
  -6 -12   2  344.49   48.52
  -6 -12   2  297.91   45.90
   6 -12  -2  334.56   45.62
   6 -12  -2  369.16   57.38
   6  12   2  318.07   45.62
   6 -12  -2  356.52   44.72
  -6 -12   2  337.21   41.73
   6 -12   3  168.17   31.68
   6 -12   3  152.89   27.75
  -6 -12  -3  125.43   19.11
  -6 -12  -3  142.93   51.84
   6  12  -3  131.01   19.21
  -6 -12  -3  182.49   19.60
   6  12  -3   91.12   26.44
   6 -12   3  140.04   18.46
  -6 -12  -3  160.75   27.55
   6  12   3  146.01   26.18
   6 -12  -3  146.31   20.32
  -6  12  -3  109.95   23.90
   6 -12  -3  141.61   32.33
   6 -12  -3  174.95   27.00
  -6 -12   3  143.84   18.60
  -6 -12   3   92.80   23.00
  -6 -12   3  156.68   23.13
  -6 -12  -4  143.01   48.67
   6 -12   4  321.23   54.53
  -6 -12  -4  251.85   31.65
   6  12  -4  232.30   31.33
   6 -12   4  240.15   30.75
   6  12  -4  268.70   44.00
  -6 -12  -4  223.29   58.00
  -6 -12  -4  293.13   32.55
  -6 -12  -4  197.91   35.79
  -6 -12   4  259.24   31.08
   6 -12  -4  246.55   44.71
  -6  12  -4  179.31   35.42
   6 -12  -4  231.51   37.70
   6  12   4  247.43   34.98
  -6 -12   4  229.25   34.81
  -6 -12  -5   61.52   10.73
  -6 -12  -5   70.23   14.04
   6  12  -5   56.65   10.27
  -6 -12  -5   35.66   21.10
  -6 -12  -5   58.65   18.14
  -6 -12  -5   21.13   36.81
   6  12  -5   33.08   16.22
   6 -12   5   57.18    8.21
   6 -12  -5   27.32   20.92
  -6 -12   5   47.97   12.80
  -6 -12   5   56.44    9.82
  -6  12  -5   16.83   13.49
   6  12  -6  110.26   26.77
  -6 -12  -6  180.04   21.38
  -6 -12  -6  156.54   52.51
   6 -12   6  133.47   16.53
  -6 -12  -6   72.29   29.78
  -6 -12  -6  135.62   26.01
   6  12  -6  109.96   16.54
  -6 -12  -6  109.92   16.81
  -6 -12   6  119.60   23.68
  -6  12  -6  123.44   24.37
  -6 -12   6  133.54   35.33
  -6  12  -6   89.95   15.44
   6 -12  -6   47.46   27.03
   6 -12  -6  119.60   17.13
  -6 -12   6  145.21   16.84
  -6 -12  -7  -21.04   26.71
   6  12  -7   47.42   10.43
  -6 -12  -7  -44.92   43.23
   6 -12   7   20.20   32.03
  -6 -12  -7   98.91   23.00
   6  12  -7   33.16   21.12
  -6 -12  -7   99.01   18.82
  -6 -12  -7   63.75   11.56
  -6 -12   7   63.05   15.16
  -6  12  -7   50.30   19.26
   6 -12  -7   47.19   20.84
   6 -12  -7  -14.89   22.58
  -6 -12   7    2.79   22.33
   6 -12  -7   78.10   13.12
  -6  12  -7   63.00   10.37
  -6 -12   7   64.83   11.46
   6  12  -8   92.22   13.17
  -6 -12  -8   -0.93   39.10
   6 -12   8   33.90   35.74
   6  12  -8   45.73   25.23
  -6 -12  -8  105.48   16.03
  -6 -12  -8   26.74   55.66
  -6 -12  -8  117.81   24.67
  -6 -12   8   80.82   19.66
   6 -12  -8   98.98   36.42
  -6  12  -8   46.87   22.71
  -6 -12   8   76.49   15.36
  -6  12  -8   86.91   14.23
   6 -12  -8   73.10   25.35
   6 -12  -8   81.04   15.69
   6  12  -9    9.39    5.53
  -6 -12  -9  -74.25   49.38
  -6 -12  -9   -8.62   27.03
  -6 -12  -9   10.68    5.21
   6  12  -9   29.76   26.78
  -6 -12  -9   40.28   13.79
   6 -12  -9  -24.19   28.45
  -6 -12   9  -78.52   31.76
  -6 -12   9   27.37   10.25
  -7 -12   0   -1.63    1.28
   7  12   0   -6.77   12.45
  -7 -12   0    6.69    7.10
   7 -12   0    2.74    7.08
  -7 -12   0   -4.36    8.83
   7 -12   0   18.04   18.26
   7  12   0    3.16    3.63
   7 -12   0   -2.80    3.44
   7 -12   0   -0.55    2.26
   7 -12   1    3.22    4.89
  -7 -12  -1    2.97    2.48
  -7 -12  -1    2.29   11.67
  -7 -12  -1    6.09    3.65
   7  12  -1    5.74    3.74
   7  12  -1    1.00   12.84
   7 -12   1    9.74    9.13
  -7 -12  -1    2.66    2.12
   7 -12   1    7.76    2.42
  -7 -12   1   -1.32    8.97
   7  12   1    7.58    3.84
   7 -12  -1    3.08    6.23
   7 -12  -1    6.30    7.20
  -7 -12   1    1.67    2.04
  -7 -12   1   10.23    5.67
  -7  12  -1  -19.30    7.25
   7 -12  -1   -1.97    2.15
   7 -12   2   11.05    7.77
   7  12  -2    5.46   14.43
   7 -12   2    6.18    2.01
  -7 -12  -2    8.45    5.73
  -7 -12  -2    5.19    2.57
  -7 -12  -2   45.26   40.32
   7  12  -2    2.65    3.75
   7 -12   2    4.52   11.07
  -7 -12  -2    0.63    2.60
  -7 -12  -2   -8.76   10.62
  -7  12  -2   -0.66    7.96
   7 -12  -2    1.07    7.63
   7  12   2   13.45    6.10
  -7 -12   2   -3.87    3.81
   7 -12  -2    0.67    4.25
  -7 -12   2   -8.08    7.95
  -7 -12   2   -1.24    1.93
   7 -12  -2  -24.90   12.60
   7 -12   3    6.98    2.55
  -7 -12  -3    7.85    5.28
   7 -12   3  -10.83   12.42
  -7 -12  -3  -31.36   15.86
  -7 -12  -3   54.72   41.36
  -7 -12  -3    1.57    2.81
  -7 -12  -3    7.63    2.81
   7  12  -3    1.72    3.42
   7  12  -3   -4.22   15.20
   7 -12  -3   -2.39   10.38
  -7 -12   3   -1.15    2.27
   7 -12  -3    1.08   13.88
  -7 -12   3    4.94   12.02
  -7  12  -3    8.44    9.47
   7 -12  -3   -5.78    2.29
  -7 -12   3   13.12    7.42
   7 -12   4    0.33    1.83
   7 -12   4   34.01   18.81
  -7 -12  -4    2.65    2.73
  -7 -12  -4  -17.84   17.28
   7  12  -4   -2.28    2.59
  -7 -12  -4   -2.26    2.21
   7  12  -4   10.54   17.04
  -7 -12  -4  -83.22   37.81
  -7 -12  -4   -1.49    5.40
  -7 -12   4   -1.33    2.05
   7 -12  -4   19.82   16.69
  -7 -12   4   10.37   12.76
  -7 -12   4    3.07    4.50
  -7  12  -4    7.94    9.93
   7 -12  -4  -11.63   11.79
  -7 -12  -5   68.22   28.43
   7  12  -5    2.74    3.24
   7 -12   5    6.98    3.45
  -7 -12  -5   34.77   39.97
  -7 -12  -5   -0.46    2.60
  -7 -12  -5    9.39    4.09
  -7 -12  -5    7.24    4.70
   7  12  -5   12.30   16.99
  -7 -12   5    1.40    3.10
  -7 -12   5   -5.78   15.01
   7 -12  -5    1.93   17.61
  -7  12  -5   -2.52   10.98
   7 -12  -5  -21.75   13.13
  -7 -12   5   12.03    5.86
  -7 -12  -6    9.23    8.15
  -7 -12  -6    2.80    3.22
  -7 -12  -6   13.02    4.96
  -7 -12  -6   22.35   43.15
   7  12  -6   -2.81   15.61
   7  12  -6    0.11    3.04
   7 -12   6   14.51   27.21
  -7 -12   6   -0.32    3.51
  -7 -12   6   11.61   22.52
   7 -12  -6    6.08   17.72
   7 -12  -6   -0.65    3.32
   7 -12  -6  -12.25   20.35
  -7  12  -6   16.43   14.55
  -7 -12   6    9.11    6.91
  -7 -12  -7   -8.90   43.94
  -7 -12  -7    6.24    3.51
  -7 -12  -7   25.82    7.67
  -7 -12  -7   27.72   37.21
   7 -12   7  -27.90   30.33
   7  12  -7    5.20    4.76
   7  12  -7    3.10   21.10
  -7 -12   7    0.52    3.94
  -7  12  -7   11.00   18.09
  -7 -12   7   16.64    6.65
   7 -12  -7   -3.74   17.98
   7 -12  -7   -0.09    3.87
   7 -12  -7   54.67   23.92
  -7 -12  -8    3.81    4.30
  -7 -12  -8    0.86    9.13
   7  12  -8    4.23    4.08
  -7 -12  -8   42.66   37.68
  -7 -12  -8  -59.88   47.50
   7  12  -8  -28.32   21.84
  -7 -12   8   86.07   53.06
  -7  12  -8    0.09    1.95
  -7 -12   8    5.18    6.08
   7 -12  -8   40.09   28.22
   7 -12  -8    6.79    5.02
  -7 -12   8    1.48    4.29
   8 -12   0  187.11   24.36
  -8 -12   0  194.06   23.05
   8 -12   0  207.99   29.19
  -8 -12   0  182.10   23.11
   8  12   0  188.23   36.18
   8  12   0  152.83   25.73
  -8 -12   0  196.51   30.65
   8 -12   1   93.84   11.68
   8  12  -1   76.60   15.36
  -8 -12  -1   54.28   18.23
  -8 -12  -1   82.96   10.73
   8  12  -1   75.52   23.01
  -8 -12  -1   96.48   10.95
  -8 -12  -1   89.48   20.00
   8 -12   1   96.62   19.59
  -8 -12   1  142.11   26.08
   8 -12  -1   76.60   13.80
   8  12   1   62.55   15.03
  -8 -12   1   80.79   10.73
  -8 -12   1   39.26   16.74
  -8 -12   1   83.04   10.67
   8 -12  -1  119.52   22.32
   8 -12   2  150.05   18.99
  -8 -12  -2   47.57   50.31
  -8 -12  -2  152.37   18.49
  -8 -12  -2  165.04   34.99
   8  12  -2  140.39   20.52
  -8 -12  -2  138.49   29.61
  -8 -12  -2  150.26   18.66
   8  12  -2  117.74   30.33
  -8 -12   2  135.37   28.57
  -8 -12   2  144.09   18.37
  -8 -12   2  164.69   31.02
   8 -12  -2  138.75   22.41
  -8 -12  -3   41.97   14.18
  -8 -12  -3   33.54    4.84
   8  12  -3  -12.57   17.21
  -8 -12  -3   59.81   44.76
   8 -12   3    1.18   16.61
  -8 -12  -3   24.09   17.71
   8 -12   3   42.21    6.43
   8  12  -3   36.49    7.89
  -8 -12  -3   30.46    5.62
  -8  12  -3    7.80   11.13
  -8 -12   3    4.59   14.19
  -8 -12   3   32.75    5.31
   8 -12  -3   35.07    9.55
   8 -12  -3   13.21   11.56
  -8 -12   3   24.42   11.70
  -8 -12  -4   13.46   27.51
   8 -12   4   86.65   26.72
   8  12  -4   99.19   14.70
   8 -12   4   75.28   11.00
  -8 -12  -4   78.36   10.73
   8  12  -4   64.70   24.93
  -8 -12  -4   83.62   19.97
  -8 -12  -4   72.54   10.68
  -8 -12  -4  132.68   53.19
  -8 -12   4   81.63   22.95
   8 -12  -4   88.20   15.30
  -8  12  -4   51.16   16.86
   8 -12  -4   41.91   17.73
   8 -12  -4   86.40   18.29
  -8 -12   4   85.13   10.70
  -8 -12   4   94.10   21.69
  -8 -12  -5   43.22   17.23
  -8 -12  -5   45.81   26.43
   8 -12   5   22.46   26.21
   8  12  -5   40.87    9.07
  -8 -12  -5  103.85   47.04
  -8 -12  -5   58.03    9.03
  -8 -12  -5   46.59    8.02
   8 -12   5   57.89    9.47
   8  12  -5   14.62   22.01
  -8 -12   5   44.87    7.96
  -8  12  -5   14.83   14.70
   8 -12  -5   49.43    9.38
   8 -12  -5   36.34   17.51
  -8 -12   5   47.88   15.11
   8 -12  -5   27.61   18.71
  -8 -12   5   20.31   23.47
  -8 -12  -6   99.70   12.81
   8  12  -6   40.86   24.69
   8  12  -6   76.86   13.86
  -8 -12  -6   92.35   24.12
  -8 -12  -6   -4.73   36.87
  -8 -12  -6   85.23   11.36
   8 -12   6   39.24   37.60
  -8 -12  -6  -13.81   44.82
  -8 -12   6   73.93   18.74
   8 -12  -6   97.39   15.28
   8 -12  -6   59.71   23.85
   8 -12  -6  111.38   28.96
  -8 -12   6   17.88   25.92
  -8  12  -6   35.89   18.82
   8  12  -7   28.55    7.03
  -8 -12  -7   -7.29   36.25
  -8 -12  -7   21.07    5.21
  -8 -12  -7   -7.98   53.87
  -8 -12  -7    3.57   10.10
   8  12  -7   19.22   23.50
  -8 -12  -7   21.36    7.40
   8 -12  -7   21.42    6.90
  -8 -12   7    2.03   26.16
  -8 -12   7   21.79   10.01
   8 -12  -7   23.82   25.69
   9 -12   0    2.69    2.81
   9 -12   0    3.71    5.70
  -9 -12   0    2.09    6.08
   9  12   0    4.26    3.21
  -9 -12   0    3.01   12.97
  -9 -12  -1    6.49    4.60
   9  12  -1    2.84    2.94
   9 -12   1    6.08    2.23
   9  12  -1   -8.60   18.93
  -9 -12  -1    7.71   13.45
  -9 -12  -1   10.93   46.01
   9 -12  -1    2.84    3.42
   9  12   1    6.20    3.35
  -9 -12   1  -18.36   12.01
  -9 -12   1   10.47    6.16
   9 -12  -1    1.01    6.87
   9 -12   2    0.89    2.00
  -9 -12  -2    0.82    6.42
  -9 -12  -2    2.25   44.39
   9  12  -2    9.58   19.58
  -9 -12  -2   -9.30   15.72
   9  12  -2   -3.00    2.71
   9 -12  -2   -2.85    4.10
  -9 -12   2   13.88   14.31
   9  12   2   -1.20    2.54
  -9 -12   2   -1.40    5.83
  -9 -12  -3   11.86    8.56
  -9 -12  -3   -8.81   18.45
   9  12  -3   -2.63    3.27
   9 -12   3    1.32    2.14
   9  12  -3  -19.42   19.46
  -9 -12  -3   -8.10   44.28
   9 -12  -3    0.36    4.36
  -9 -12   3   36.34   20.61
  -9 -12   3    5.53    6.56
   9  12  -4   -0.93    2.68
   9  12  -4   -0.95   22.31
  -9 -12  -4  -25.87   24.18
   9 -12   4  -49.50   27.86
  -9 -12  -4   35.95   43.89
   9 -12   4   -1.40    2.50
  -9 -12  -4   22.96   10.09
  -9  12  -4   -1.66   11.08
   9 -12  -4    3.14    4.44
  -9 -12   4   -3.03    4.57
  -9 -12   4   -0.30   19.33
   9  12  -5   -2.89   25.73
  -9 -12  -5   19.46   29.46
  -9 -12  -5   -2.22    5.81
   9  12  -5   -2.41    2.90
  -9 -12  -5  -31.87   48.72
   9 -12   5    5.17   33.36
   9 -12   5    7.19    3.76
   9 -12  -5   18.40   16.14
  -9 -12   5    7.92    7.65
  -9  12  -5   -2.76   13.76
   9 -12  -5   11.73   15.18
   9 -12  -5    3.37    3.68
  -9 -12   5    2.55   21.88
   9  12  -6   24.16   32.61
  -9 -12  -6    7.26   37.34
   9  12  -6   -3.57    2.73
  -9 -12  -6    5.06   10.82
  -9 -12   6  -31.77   26.26
   9 -12  -6   14.39   19.18
   9 -12  -6    5.33    4.61
  -9 -12   6    9.24    8.86
  10  12   0   48.92   12.32
 -10 -12   0   73.58   20.41
 -10 -12   0   25.97   16.79
 -10 -12  -1   27.68   16.21
  10  12  -1    9.58    6.61
 -10 -12  -1   -8.32   56.94
 -10 -12  -1   38.26   14.19
  10 -12   1   32.99    5.31
  10  12   1   21.08    8.61
 -10 -12   1    1.16   15.70
 -10 -12   1   19.88   10.72
  10 -12  -1   23.94    6.16
 -10 -12  -2   22.73   49.66
  10  12  -2   -7.13   24.43
  10  12  -2   35.17    9.25
 -10 -12  -2   27.26   19.21
 -10 -12  -2   62.98   17.25
  10 -12   2   44.54    6.18
  10 -12  -2   49.03   14.41
 -10 -12   2   68.30   18.54
  10 -12  -2   24.64    7.93
  10  12   2   41.34   11.58
 -10 -12   2   27.68   19.37
  10  12  -3   44.17    9.97
 -10 -12  -3   35.50   50.65
 -10 -12  -3   23.61   13.17
 -10 -12  -3    6.74   22.11
  10 -12   3   38.66    6.77
  10  12  -3   61.27   27.18
  10 -12  -3   34.49   11.56
 -10 -12   3    2.29   21.15
 -10 -12   3   28.53   13.70
 -10 -12  -4  -12.88   25.73
  10  12  -4   46.03   30.88
 -10 -12  -4   96.52   26.88
  10 -12   4   71.71   10.39
  10  12  -4   54.92   12.19
 -10 -12   4   65.18   27.75
 -10 -12   4   91.45   20.58
  10 -12  -4   72.12   12.23
  10 -12  -4   72.70   15.23
   0  13   0    0.41    2.17
   0  13   0   -2.94    6.59
   0 -13   0    6.04    7.60
   0 -13   0    2.87    2.71
   0 -13   1   -7.09    5.42
   0 -13  -1    5.24    3.43
   0  13  -1   -0.86    2.09
   0  13   1    2.81    3.19
   0 -13  -1   -5.09    6.51
   0  13  -1    6.70    8.73
   0  13   1   -3.84    7.15
   0 -13   1    2.07    2.13
   0  13   2   10.96   10.48
   0  13  -2   -2.13    1.81
   0 -13   2   -2.95    5.75
   0 -13  -2   -3.73   10.72
   0 -13   2    1.61    1.93
   0 -13  -2    0.60    3.50
   0  13  -2    6.46    7.15
   0 -13  -3   -2.93    3.23
   0 -13   3    3.53    2.62
   0 -13  -3    9.57   21.36
   0  13  -3    3.00    3.16
   0  13  -3   -0.09    7.21
   0 -13   3    5.89    5.68
   0 -13  -3    2.48    9.70
   0 -13  -3   -0.88    2.53
   0 -13   4    0.81    1.98
   0 -13   4   -9.65   11.18
   0 -13  -4   -8.92   27.34
   0 -13  -4   -1.00    2.88
   0  13  -4   -0.98    2.67
   0 -13  -4    2.89   10.81
   0  13  -4   -7.08    7.08
   0 -13  -4   -0.02    4.97
   0  13  -5    7.70    8.63
   0  13  -5   -0.59    2.34
   0 -13  -5   22.43   31.28
   0 -13  -5   10.56   12.50
   0 -13   5    4.88    9.95
   0 -13  -6    1.83    3.36
   0  13  -6    0.48    2.89
   0 -13  -6  -15.71   28.75
   0 -13   6    2.03    2.39
   0 -13  -6    8.24    4.66
   0 -13  -6   11.51   27.75
   0  13  -6   11.00   10.62
   0 -13   6    8.97   14.42
   0 -13  -7  -31.49   26.62
   0 -13  -7    1.48   17.86
   0  13  -7    2.86    3.14
   0 -13   7   -6.93   17.86
   0  13  -7   25.45   14.43
   0 -13  -7   -3.08    2.47
   0 -13  -7    1.40    3.70
   0  13  -8    5.69    4.03
   0 -13   8   -7.32   21.72
   0  13  -8   -0.82   15.72
   0 -13  -8   -0.26    4.60
   0 -13  -8    9.44   34.43
   0 -13  -9   29.84   37.55
   0  13  -9    5.82    4.65
   0 -13   9  -18.27   53.28
   0  13  -9    8.00   19.95
   0 -13  -9    0.18    4.52
   0 -13  10   30.98   39.66
   0  13 -10   -5.18   24.77
   0 -13 -10    8.17    4.56
   0 -13 -10   12.89   55.55
   0  13 -10    6.26    4.79
  -1 -13   0  231.02   26.85
  -1 -13   0  235.93   32.40
   1  13   0  157.92   26.80
  -1  13   0  188.65   31.09
   1  13   0  260.94   36.34
   1 -13   0  196.65   26.83
   1 -13   0  207.15   31.00
  -1 -13  -1  296.71   43.06
   1  13  -1  255.35   41.74
   1 -13   1  335.19   37.47
  -1  13   1  238.12   41.45
   1 -13   1  311.25   41.51
   1  13  -1  242.51   37.51
  -1 -13  -1  302.66   38.26
  -1 -13   1  306.11   37.17
   1 -13  -1  361.72   43.51
   1 -13  -1  282.11   38.32
   1  13   1  339.50   46.13
  -1  13  -1  256.72   41.13
   1  13  -2  174.13   23.57
  -1 -13  -2  204.83   25.40
  -1 -13  -2  193.97   25.00
   1 -13   2  171.27   27.80
   1  13  -2  174.81   28.13
  -1 -13  -2  147.40   30.64
  -1  13   2  141.34   28.83
   1  13   2  133.57   27.61
   1 -13  -2  182.83   25.15
  -1  13  -2  186.06   28.13
  -1  13  -2  145.08   23.33
   1 -13  -2  184.26   31.26
  -1 -13   2  208.11   23.16
  -1 -13   2  177.82   28.13
  -1 -13  -3  493.43   98.04
   1 -13   3  468.33   52.65
  -1 -13  -3  384.87   54.12
   1  13  -3  432.02   53.04
  -1 -13  -3  378.44   55.12
   1  13  -3  570.16   65.54
  -1 -13  -3  391.12   60.22
  -1 -13   3  430.20   58.42
  -1 -13   3  418.64   52.48
   1 -13  -3  509.88   61.45
  -1  13  -3  467.10   57.54
   1 -13  -3  357.19   54.88
  -1  13  -3  377.23   52.86
   1 -13  -3  330.58   73.89
   1  13  -4  248.38   35.71
  -1 -13  -4  294.90   37.80
  -1 -13  -4  208.25   57.28
  -1 -13  -4  227.15   38.57
   1 -13   4  280.46   42.88
  -1 -13  -4  378.89   56.02
   1  13  -4  373.52   46.68
   1 -13   4  281.21   35.62
  -1  13  -4  270.49   35.94
  -1  13  -4  333.62   44.65
   1 -13  -4  232.47   57.11
   1 -13  -4  299.06   36.60
  -1 -13   4  241.19   42.03
   1 -13  -4  389.61   60.03
  -1 -13   4  285.49   35.71
   1 -13   5  199.23   25.65
  -1 -13  -5  165.31   33.20
   1 -13   5  170.00   34.54
  -1 -13  -5  207.84   27.63
  -1 -13  -5  394.07   61.44
   1  13  -5  184.82   25.59
   1  13  -5  156.08   32.34
  -1 -13  -5  313.30   75.06
   1 -13  -5  189.75   25.97
   1 -13  -5  121.45   40.66
  -1 -13   5  214.96   25.81
  -1  13  -5  183.79   25.60
   1 -13  -5  250.57   43.91
  -1  13  -5  284.05   41.63
  -1 -13   5  191.67   36.20
   1  13  -6   65.01   12.03
  -1 -13  -6   72.34   13.50
  -1 -13  -6   48.52   32.17
  -1 -13  -6   53.78   16.34
  -1 -13  -6   82.86   15.39
   1  13  -6   32.65   15.71
  -1 -13  -6   26.98   17.66
   1 -13   6   84.14   10.74
   1 -13   6   27.15   19.79
  -1 -13   6   93.18   29.98
  -1 -13   6   71.99   10.49
  -1  13  -6   49.01   17.08
  -1  13  -6   77.84   12.27
   1 -13  -6   88.28   23.94
   1 -13  -6  111.82   34.52
   1 -13  -6   87.81   14.75
  -1 -13  -7  126.21   18.15
   1  13  -7  109.55   16.60
  -1 -13  -7  177.06   42.45
   1 -13   7  107.43   33.43
   1  13  -7  162.90   34.78
  -1 -13  -7  142.46   19.13
  -1 -13  -7   92.79   29.06
   1 -13  -7  137.89   21.37
  -1 -13   7  136.03   37.46
   1 -13  -7   62.23   22.00
  -1  13  -7  129.35   28.96
  -1  13  -7  113.95   16.65
   1 -13  -7  133.19   46.67
  -1 -13  -8   56.12   14.64
  -1 -13  -8   44.17   40.02
  -1 -13  -8  121.11   19.16
   1 -13   8   56.78   28.66
   1  13  -8   86.55   14.89
   1  13  -8   90.63   34.83
   1 -13  -8  112.97   17.92
  -1  13  -8   83.12   14.23
  -1  13  -8   95.20   26.79
  -1 -13   8  102.81   52.08
   1 -13  -8   40.28   35.05
   1 -13   9   10.18   36.31
   1  13  -9  147.04   41.17
  -1 -13  -9  127.15   17.55
   1  13  -9  103.96   16.06
  -1 -13  -9  126.64   52.14
  -1 -13   9   79.14   35.04
   1 -13  -9  169.00   52.71
  -1  13  -9  100.16   15.76
  -1  13  -9   85.96   32.32
   1 -13  -9  128.68   20.67
   1  13 -10   -0.74   23.00
   1 -13  10   28.36   37.98
  -1 -13 -10 -125.48   57.11
  -1 -13 -10   10.05    6.97
   1  13 -10   26.67    7.44
  -1  13 -10   11.84   49.70
  -1 -13  10   32.67   57.47
   1 -13 -10   31.55    8.41
  -1  13 -10   26.20    6.87
   1 -13 -10   -7.66   31.19
   2 -13   0    1.85    6.64
   2 -13   0    2.15    2.69
  -2 -13   0   -4.57    7.06
   2  13   0    2.32    7.36
   2  13   0    1.59    3.22
  -2 -13   0    0.30    1.97
  -2  13   0   -8.28    5.66
   2  13  -1   -1.53    2.36
  -2  13   1    0.28    7.09
   2 -13   1    1.83    1.90
  -2 -13  -1    2.00    3.31
   2  13  -1   -1.28    6.73
  -2 -13  -1    1.26    3.15
   2 -13   1   -7.19    4.72
  -2 -13  -1   -1.62    6.90
  -2  13  -1   -6.72    6.73
  -2 -13   1    1.30    6.57
   2 -13  -1    1.06    3.55
   2  13   1    2.19    3.06
   2  13   1    0.55    6.90
   2 -13  -1   -6.97    5.55
  -2 -13   1    1.57    1.98
  -2  13  -1    3.58    2.23
  -2 -13  -2    0.09    2.53
   2  13  -2    2.09    2.67
   2 -13   2   -5.99    5.74
  -2 -13  -2  -13.99    9.15
  -2 -13  -2    2.31    3.18
   2  13  -2    1.83   11.76
   2 -13   2    4.01    2.35
  -2  13  -2    1.14    2.51
  -2  13  -2    3.09    6.61
   2 -13  -2    0.83    4.36
  -2 -13   2   -9.76    8.96
   2  13   2   -7.08    8.11
  -2 -13   2   -2.09    1.45
   2  13   2    3.79    2.40
   2 -13  -2  -11.00    7.05
  -2 -13  -3   -2.50    9.37
   2 -13   3    0.67    1.84
  -2 -13  -3    0.71   30.92
  -2 -13  -3    0.29    4.18
   2  13  -3    4.12    6.84
   2 -13   3   -8.07    5.82
  -2 -13  -3    8.93    3.88
   2  13  -3    2.04    2.94
   2 -13  -3    0.49    4.33
  -2  13  -3   -3.37    5.80
   2 -13  -3  -17.88   19.40
  -2 -13   3    0.93    1.70
   2 -13  -3    0.83    8.81
  -2  13  -3    2.97    2.83
  -2 -13   3    0.56    5.12
   2 -13   4    4.74    2.36
  -2 -13  -4   10.17   13.57
   2  13  -4   -4.52   11.23
  -2 -13  -4    3.95    4.34
   2 -13   4    2.42    9.17
   2  13  -4   -0.41    2.61
  -2 -13  -4    1.93   27.65
  -2 -13  -4   -0.68    5.41
   2 -13  -4    3.88   10.77
  -2 -13   4    3.93    2.63
   2 -13  -4    4.72    3.25
   2 -13  -4  -10.72   22.25
  -2 -13   4   -2.26   10.86
  -2  13  -4    1.68    2.73
  -2  13  -4    0.58    7.21
  -2 -13  -5    6.20    5.12
   2 -13   5    5.57    2.77
  -2 -13  -5  -45.37   25.83
  -2 -13  -5    1.59    3.49
   2 -13   5    6.54   11.88
   2  13  -5    2.32    9.74
  -2 -13  -5    9.06   41.18
  -2 -13  -5   -4.83    5.27
   2  13  -5   -2.31    1.80
  -2 -13   5   -4.17    1.90
  -2  13  -5   -3.49    9.46
  -2  13  -5   -0.06    2.88
  -2 -13   5   11.70   10.60
   2 -13  -5   -4.36   21.14
   2 -13  -5    1.97   11.45
   2 -13   6    6.59    3.56
  -2 -13  -6    0.27    7.18
   2  13  -6    0.23    3.01
  -2 -13  -6    6.26   17.66
   2 -13   6   10.88   14.60
   2  13  -6   -8.71    9.20
  -2 -13  -6    6.48   34.89
  -2 -13  -6    0.10    4.15
  -2 -13  -6    7.97    5.42
  -2 -13   6    3.84    4.02
  -2 -13   6    6.42   15.78
   2 -13  -6    8.19    5.16
  -2  13  -6    2.89   12.12
  -2  13  -6    0.72    3.36
   2 -13  -6    6.62   13.33
   2 -13  -6  -18.83   23.35
  -2 -13  -7    4.52    5.79
  -2 -13  -7  -11.24   33.84
   2  13  -7   -5.39   13.51
   2 -13   7  -15.18   17.37
   2  13  -7    0.07    2.88
  -2 -13  -7   16.94   27.86
  -2 -13  -7    5.96    4.73
   2 -13  -7   -0.59   14.40
  -2  13  -7    4.05   13.01
  -2 -13   7   19.58   18.53
   2 -13  -7    1.19    3.62
  -2  13  -7    2.60    3.66
   2 -13  -7   36.08   30.20
  -2 -13  -8   -3.70    3.19
   2  13  -8   29.07   17.19
   2 -13   8    2.94   22.74
  -2 -13  -8  -35.43   19.99
   2  13  -8    2.20    3.56
  -2 -13  -8   38.89   39.43
  -2 -13  -8    5.97    5.43
   2 -13  -8   -0.08   29.46
  -2  13  -8    2.94    3.56
  -2 -13   8    2.62   21.68
  -2  13  -8   -4.94   15.20
   2  13   8    1.85    5.30
   2 -13  -8    4.44    4.36
   2  13  -9  -18.67   38.29
   2  13  -9   -1.47    3.10
  -2 -13  -9  -25.28   47.51
   2 -13   9  -37.85   30.00
  -2 -13  -9   -1.54    3.74
   2 -13  -9   -1.05    3.37
   2  13   9   -3.28    4.22
   2 -13  -9  -36.86   33.84
  -2 -13   9  -33.52   26.60
  -2  13  -9    3.14    3.71
  -2  13  -9    6.01   18.95
  -2 -13 -10   -7.86   87.78
   2  13 -10    4.26    4.09
   2  13 -10   57.52   28.65
   2 -13  10  -13.32   44.46
  -2 -13 -10   -3.67    3.29
   2  13  10   -3.45    4.83
  -2 -13  10  -17.86   34.20
  -2  13 -10   25.53   27.75
  -2  13 -10    2.40    3.83
   2 -13 -10    2.45   30.58
   2 -13 -10   -1.00    4.17
   3 -13   0  201.82   29.41
  -3 -13   0  257.71   29.25
  -3 -13   0  207.04   31.27
   3 -13   0  242.25   33.23
  -3  13   0  175.87   32.65
  -3 -13   0  236.05   35.26
   3  13   0  294.86   40.15
  -3  13   1  399.80   57.01
  -3 -13  -1  452.39   53.41
   3 -13   1  412.68   56.20
   3  13  -1  380.72   58.14
  -3 -13  -1  439.99   55.68
  -3 -13  -1  466.76   60.37
   3 -13   1  455.82   53.06
   3  13  -1  378.33   53.38
  -3 -13   1  400.20   57.73
  -3  13  -1  478.94   57.83
   3 -13  -1  421.74   57.20
  -3 -13   1  383.66   55.28
  -3 -13   1  472.02   52.73
   3 -13  -1  359.80   53.58
   3  13   1  389.13   58.71
  -3 -13  -2  110.14   27.11
   3  13  -2   90.88   12.97
   3 -13   2   59.41   15.87
  -3 -13  -2  107.95   13.88
  -3 -13  -2  121.77   16.19
   3 -13   2   95.71   12.27
   3  13  -2  156.53   30.78
  -3 -13   2   79.19   11.88
  -3  13  -2   72.31   16.13
  -3 -13   2   88.16   18.86
   3 -13  -2   94.85   17.04
   3  13   2   82.79   19.80
   3  13   2   54.80   14.61
   3 -13  -2  117.86   22.24
  -3  13  -2   69.64   13.56
  -3 -13  -3  198.66   38.19
   3  13  -3  220.40   28.49
  -3 -13  -3  152.00   49.20
   3 -13   3  219.58   27.85
  -3 -13  -3  205.47   30.83
   3  13  -3  234.14   34.52
  -3 -13  -3  241.73   30.74
   3 -13   3  244.38   34.78
  -3  13  -3  179.33   28.07
  -3  13  -3  218.61   32.75
  -3 -13   3  224.33   27.92
   3 -13  -3  283.38   56.26
   3 -13  -3  259.09   36.17
  -3 -13  -4   74.02   17.03
  -3 -13  -4   87.31   16.37
   3 -13   4   54.91   18.16
   3  13  -4   52.32   15.50
   3 -13   4   62.66    9.94
  -3 -13  -4   77.97   24.66
  -3 -13  -4  -12.03   32.89
   3  13  -4   78.63   12.46
  -3  13  -4   55.71   15.30
   3 -13  -4   76.15   20.50
   3 -13  -4  124.33   34.92
  -3 -13   4   77.11   10.30
  -3  13  -4   70.87   11.92
  -3 -13   4   74.91   20.96
   3  13  -5  159.16   31.71
  -3 -13  -5  192.90   26.45
   3 -13   5  181.18   36.46
  -3 -13  -5  148.71   35.92
   3 -13   5  222.41   25.51
  -3 -13  -5  202.87   29.56
   3  13  -5  192.71   25.42
  -3 -13  -5  291.14   63.64
  -3 -13  -5  193.36   28.53
   3 -13  -5  161.18   33.70
  -3  13  -5  246.17   36.90
   3 -13  -5  238.27   48.22
  -3  13  -5  175.35   25.27
  -3 -13   5  119.16   32.35
  -3 -13   5  203.59   25.48
   3  13   5  199.22   27.57
  -3 -13  -6  173.18   30.09
   3 -13   6  139.86   19.22
   3  13  -6  149.74   19.66
  -3 -13  -6  159.69   23.42
  -3 -13  -6  130.91   32.40
   3 -13   6   70.25   29.64
  -3 -13  -6  119.17   20.04
   3  13  -6  165.84   31.40
  -3 -13  -6   11.66   40.89
  -3  13  -6  133.05   19.31
   3 -13  -6  136.01   20.42
  -3  13  -6  146.57   28.38
   3 -13  -6  134.43   39.43
  -3 -13   6  162.24   38.51
   3  13   6  165.75   22.16
  -3 -13   6  167.70   19.98
   3 -13  -6  126.46   30.06
  -3 -13  -7  189.60   71.97
  -3 -13  -7  145.40   38.23
  -3 -13  -7  162.28   23.82
  -3 -13  -7  165.96   26.10
   3 -13   7  158.59   37.97
   3  13  -7  210.81   38.23
   3  13  -7  159.66   22.76
  -3  13  -7  164.58   22.62
   3 -13  -7  163.77   23.76
   3 -13  -7  202.96   47.71
  -3  13  -7  154.18   30.99
   3 -13  -7  169.82   34.28
   3  13   7  190.52   25.62
  -3 -13   7  163.14   41.10
  -3 -13  -8   31.64   40.86
  -3 -13  -8   47.84   13.06
   3  13  -8   29.53   18.33
   3  13  -8   36.34    8.07
   3 -13   8  -25.62   24.60
  -3 -13  -8   38.27   27.13
  -3 -13  -8   33.88    9.14
  -3  13  -8   27.81    7.52
   3 -13  -8   72.18   37.55
   3  13   8   29.70   10.77
  -3 -13   8   95.14   58.15
  -3  13  -8    6.00   16.35
   3 -13  -8   43.68    9.76
   3  13  -9   43.32   10.05
  -3 -13  -9  -72.10   52.24
  -3 -13  -9   46.02   11.43
  -3 -13  -9   49.18   47.30
   3  13  -9   31.14   20.27
   3  13   9   71.24   15.62
  -3  13  -9   63.39   10.95
  -3  13  -9   23.61   23.42
   3 -13  -9   52.86   12.21
   3 -13  -9   84.33   32.43
  -3 -13   9   26.24   26.78
   3 -13  10   20.67   98.83
  -3 -13 -10   28.65    8.65
  -3 -13 -10  -29.15   47.30
   3  13 -10    2.34   25.99
  -3 -13 -10   55.71   35.88
   3  13 -10   36.87    8.69
  -3  13 -10   29.87    7.72
   3 -13 -10   25.13    9.26
  -3  13 -10    2.36   27.28
   3 -13 -10  -20.69   37.92
  -3 -13  10    9.34   46.64
   3  13  10   23.63   12.56
  -4 -13   0    2.38    2.29
   4 -13   0    3.31    7.28
  -4  13   0    8.05    7.32
   4  13   0    4.80    3.69
  -4 -13   0    6.87    5.02
   4  13   0   -6.43    8.11
  -4 -13   0    7.19    8.43
   4 -13   0    0.25    2.77
  -4  13   1    0.39    6.76
  -4 -13  -1   -2.88    7.72
   4  13  -1   -8.04    8.75
   4 -13   1  -16.80    5.88
   4  13  -1    1.28    3.02
  -4 -13  -1    4.70    4.96
  -4 -13  -1    3.86    2.68
   4 -13   1    3.83    2.28
   4  13   1   -8.75    9.77
   4 -13  -1    1.58    3.55
  -4 -13   1   -1.33    3.06
  -4 -13   1    2.50    2.23
  -4  13  -1   -3.48    6.28
   4 -13  -1   -0.42    7.82
  -4 -13   1    9.16    8.39
   4  13   1    5.12    3.24
  -4 -13  -2    0.43    3.18
   4 -13   2    6.74    7.18
  -4 -13  -2    9.24    3.40
   4  13  -2  -12.17    8.75
   4 -13   2    1.42    1.93
   4  13  -2   -2.13    2.80
  -4 -13  -2   -2.62   10.96
   4  13   2    5.20    4.05
  -4 -13   2    6.71    5.19
   4  13   2    5.70    9.32
   4 -13  -2   -6.07    7.88
  -4 -13   2    3.63    2.56
  -4 -13   2    4.27    8.29
   4 -13  -2    0.32    3.52
   4 -13  -2   -7.39   20.30
  -4  13  -2    5.69    7.68
  -4 -13  -3    1.70    4.19
  -4 -13  -3    4.11    3.27
   4 -13   3   -0.21    8.67
  -4 -13  -3  -14.69   50.66
   4  13  -3   -0.84    2.27
   4 -13   3    5.36    1.87
   4  13  -3  -12.06    8.55
  -4 -13  -3   -9.16   11.53
  -4 -13   3    1.20    2.11
  -4 -13   3    0.60    8.66
   4 -13  -3   15.07   10.03
  -4  13  -3    5.16    2.36
  -4  13  -3    2.07    8.33
   4 -13  -3  -10.94   19.43
  -4 -13  -4    6.11    5.31
   4 -13   4   -8.96   10.65
  -4 -13  -4   -0.92    3.61
  -4 -13  -4   17.03   33.29
  -4 -13  -4   27.46   14.10
   4  13  -4   -2.13    1.96
   4 -13   4    6.25    2.42
  -4 -13  -4   -3.50    2.64
   4  13  -4  -33.77   17.56
   4  13   4    0.96    4.83
  -4  13  -4    0.84    8.38
   4 -13  -4   -4.52   11.23
   4 -13  -4   14.65   23.39
  -4  13  -4   -1.03    2.45
  -4 -13   4    2.26    2.58
  -4 -13   4   -9.06    8.44
  -4 -13  -5   49.08   37.06
   4 -13   5    4.47    2.49
  -4 -13  -5   -4.67    3.96
  -4 -13  -5   -0.48    3.03
   4  13  -5    0.50    2.68
  -4 -13  -5    2.16    5.26
   4 -13   5    8.82   15.54
   4  13  -5   12.69   10.46
  -4 -13  -5   -4.48   17.82
   4 -13  -5    9.73   19.97
  -4 -13   5  -14.30   11.29
   4  13   5    0.89    4.37
  -4 -13   5    0.45    3.10
  -4  13  -5    1.28    3.14
   4 -13  -5   -0.90   12.32
  -4  13  -5    5.39    9.63
  -4 -13  -6    8.21    4.08
  -4 -13  -6  -23.78   19.79
   4 -13   6    6.58    3.57
   4  13  -6    0.99    3.20
  -4 -13  -6  -40.76   32.03
  -4 -13  -6   13.54    9.96
   4  13  -6    7.58   12.97
   4 -13   6    3.04   18.18
  -4 -13  -6    3.53    4.62
  -4 -13   6    2.42    3.32
   4 -13  -6    8.42   22.89
   4  13   6    0.91    5.59
  -4 -13   6   -0.37   16.26
   4 -13  -6   -2.03    3.40
  -4  13  -6   18.67   12.40
   4 -13  -6  -20.57   13.98
  -4  13  -6    3.60    3.50
  -4 -13  -7   -8.10    3.48
  -4 -13  -7    3.36    3.93
  -4 -13  -7   -6.03   37.07
  -4 -13  -7   10.93   26.09
   4  13  -7   -0.69    3.09
   4 -13   7   -5.31   21.60
   4  13  -7   20.65   29.45
  -4 -13   7   13.47   20.20
   4  13   7   -3.81    4.30
   4 -13  -7   -0.38    3.88
   4 -13  -7   -9.15   23.30
   4 -13  -7    2.40   16.46
  -4  13  -7  -12.38   13.81
  -4 -13   7    1.76    2.89
  -4  13  -7    1.99    3.26
   4  13  -8    9.95   16.66
  -4 -13  -8    4.14    6.28
  -4 -13  -8  -15.10   27.49
  -4 -13  -8   -1.89   40.55
   4  13  -8    0.04    2.91
  -4 -13  -8   -3.90    3.05
   4 -13   8   23.83   49.34
   4 -13  -8   -0.58    4.07
   4 -13  -8  -15.40   22.86
  -4 -13   8  -18.24   21.78
  -4  13  -8   -2.11    2.72
   4  13   8   -3.56    4.72
  -4  13  -8   -2.88   16.17
  -4 -13  -9   10.16    6.32
   4 -13   9   24.25   36.63
  -4 -13  -9  -45.10   22.06
  -4 -13  -9  -60.17   39.07
  -4 -13  -9    6.14    7.86
   4  13  -9   12.64   23.47
   4  13  -9    3.64    4.22
   4 -13  -9    2.94   29.43
  -4 -13   9   -0.48   28.17
  -4  13  -9    4.40    3.80
   4 -13  -9   -0.95    3.94
  -4  13  -9   10.42   21.50
  -5 -13   0   72.01   16.82
   5  13   0   19.19   13.06
  -5 -13   0   55.32    7.56
   5 -13   0   33.65    7.72
  -5 -13   0   38.66   14.51
   5 -13   0    9.88    8.89
   5  13   0   43.61    9.64
  -5  13   0   16.31    9.98
   5  13  -1  192.72   26.14
  -5 -13  -1  217.64   37.38
   5 -13   1  180.49   28.63
  -5 -13  -1  234.72   25.23
  -5 -13  -1  200.94   29.24
   5  13  -1  197.44   35.66
   5 -13   1  228.99   25.33
  -5 -13   1  190.06   28.67
   5 -13  -1  149.07   25.43
   5  13   1  160.38   26.21
  -5 -13   1  132.01   28.91
   5 -13  -1  164.94   28.67
  -5  13  -1  172.76   29.09
  -5 -13   1  219.96   24.88
   5  13   1  194.65   34.88
  -5 -13  -2  117.48   26.75
  -5 -13  -2  109.74   14.36
   5  13  -2   84.47   22.18
   5 -13   2  105.41   13.60
  -5 -13  -2  108.31   20.40
   5 -13   2  113.82   21.50
   5  13  -2  100.46   14.45
   5 -13  -2   97.91   32.08
   5  13   2   62.86   16.35
  -5 -13   2  111.86   21.69
  -5 -13   2   92.05   21.21
   5 -13  -2   87.51   17.06
   5 -13  -2   85.23   19.07
  -5 -13   2  103.10   13.52
  -5  13  -2   84.79   19.62
   5 -13   3  199.98   35.65
  -5 -13  -3  119.60   32.88
  -5 -13  -3  238.15   27.80
  -5 -13  -3  188.43   26.96
   5 -13   3  209.16   26.10
   5  13  -3  171.28   34.64
  -5 -13  -3  170.88   29.87
  -5 -13   3  207.36   30.04
  -5 -13   3  212.12   26.21
   5  13   3  210.91   29.73
  -5  13  -3  235.89   32.24
   5 -13  -3  258.86   49.60
   5 -13  -3  202.98   27.62
   5 -13  -3  194.67   34.11
   5  13  -4   97.92   24.13
   5  13  -4   92.68   14.82
   5 -13   4  103.06   24.54
   5 -13   4   91.61   12.21
  -5 -13  -4  144.29   20.42
  -5 -13  -4   38.77   39.05
  -5 -13  -4   89.95   15.17
  -5 -13  -4   36.96   21.96
  -5 -13  -4   83.33   20.31
  -5 -13   4   89.19   18.74
  -5 -13   4   53.31   18.13
   5  13   4  109.98   21.76
  -5 -13   4   95.01   12.57
   5 -13  -4   56.68   25.86
   5 -13  -4   56.10   18.93
  -5  13  -4   74.03   18.33
   5 -13   5  187.36   23.78
  -5 -13  -5  147.10   36.41
  -5 -13  -5  238.85   28.40
  -5 -13  -5  203.67   25.04
  -5 -13  -5  173.08   28.43
   5  13  -5  173.26   24.08
   5 -13   5  155.05   35.94
  -5 -13  -5  119.64   53.92
   5  13  -5  217.20   35.59
   5 -13  -5  138.08   37.44
  -5  13  -5  167.34   32.01
  -5 -13   5  175.21   27.78
  -5 -13   5  125.45   31.27
   5  13   5  217.94   28.23
   5 -13  -5  141.37   32.09
  -5  13  -5  154.44   23.53
  -5 -13   5  203.80   24.06
  -5 -13  -6   23.70   38.59
   5  13  -6   41.52    8.83
  -5 -13  -6  -17.10   19.32
   5 -13   6   43.89    8.76
  -5 -13  -6   57.45   14.69
  -5 -13  -6   47.59    9.69
  -5 -13  -6   67.67   17.61
   5 -13   6   29.65   23.60
  -5  13  -6   33.62    8.19
   5 -13  -6   37.94    9.44
   5  13   6   66.40   16.89
  -5 -13   6   47.50    8.96
   5 -13  -6   52.15   27.38
  -5 -13   6   51.40   24.42
  -5  13  -6   32.09   14.84
  -5 -13  -7  169.73   56.08
  -5 -13  -7   92.29   20.87
  -5 -13  -7  160.88   75.05
   5  13  -7   42.78   19.27
   5 -13   7   81.46   40.24
   5  13  -7   93.72   14.46
  -5 -13  -7   79.63   14.28
  -5 -13   7   93.33   12.54
  -5  13  -7   74.73   20.90
   5 -13  -7   88.16   33.16
   5 -13  -7   45.38   21.38
   5 -13  -7   70.28   14.30
  -5 -13   7   24.96   27.57
  -5  13  -7   67.48   12.75
  -5 -13  -8   23.41   13.00
  -5 -13  -8  112.73   49.84
  -5 -13  -8   22.25   31.09
   5  13  -8    0.16   20.50
   5 -13   8   11.42   37.29
  -5 -13  -8   38.47    9.68
   5  13  -8   45.35    9.38
   5 -13  -8  -29.64   24.63
  -5 -13   8   -2.03   24.45
   5 -13  -8   55.66   23.65
  -5  13  -8    4.30   18.56
  -5  13  -8   52.92    9.49
   5 -13  -8   50.08   10.60
   5  13  -9   48.56   25.51
   5  13  -9   67.15   12.67
  -5 -13  -9   64.93   18.00
  -5 -13  -9   16.29   55.46
  -5 -13  -9   67.00   13.04
   5 -13   9    8.04   46.03
  -5 -13  -9   25.85   34.60
   5 -13  -9    4.13   22.23
  -5  13  -9   79.15   12.44
   5 -13  -9   34.61   34.25
  -5 -13   9   26.27   38.93
  -5  13  -9   39.86   27.23
   5 -13  -9   58.31   13.11
   6 -13   0   -0.82    1.99
  -6 -13   0   -0.54    3.01
  -6  13   0    2.16    8.16
  -6 -13   0  -11.03    9.64
  -6 -13   0    2.64    1.97
   6  13   0   -0.87   11.05
   6  13   0    0.94    3.57
   6 -13   0  -15.15    5.86
   6 -13   0   10.46    6.50
  -6 -13  -1   10.53    5.71
   6 -13   1   -0.23    8.36
  -6 -13  -1   -9.86   12.01
   6 -13   1    5.30    1.96
   6  13  -1   -3.91   11.67
   6 -13   1    2.79    6.02
  -6 -13  -1    1.33    1.69
   6  13  -1    6.90    4.36
  -6 -13   1    1.61    3.91
  -6 -13   1    8.28   10.92
  -6  13  -1   -5.11    7.39
   6 -13  -1    2.38    7.18
   6 -13  -1    0.43    3.92
   6 -13  -1    0.52    2.72
   6  13   1    8.39    3.54
   6  13   1    2.73   11.99
  -6 -13   1    1.57    1.88
   6 -13  -1  -47.17   18.87
   6  13  -2   -0.22    3.55
  -6 -13  -2    9.20    3.47
   6 -13   2   11.12    7.40
   6 -13   2    1.09   10.87
   6 -13   2    7.65    3.12
   6  13  -2   -1.64   11.72
  -6 -13  -2    2.97    3.54
  -6 -13  -2   -0.54    6.53
  -6  13  -2   -9.80    7.99
  -6 -13   2    6.83   10.56
   6  13   2    8.92    4.60
  -6 -13   2    3.94    2.87
   6 -13  -2    1.52    9.39
   6 -13  -2   -0.48    4.97
  -6 -13   2    4.29    5.58
   6 -13  -2   37.50   22.30
  -6 -13  -3    8.29    3.39
   6 -13   3    7.11    2.31
   6 -13   3   -2.05   12.16
   6 -13   3    0.83    5.33
   6  13  -3    3.67   12.20
   6  13  -3    5.34    3.73
  -6 -13  -3    7.22    5.69
  -6 -13  -3   -3.68   36.80
  -6 -13  -3    4.25    3.62
   6 -13  -3  -10.59   17.52
   6  13   3   -0.55    4.17
  -6  13  -3   14.39    8.87
  -6 -13   3    4.95    5.55
  -6 -13   3    0.31    2.66
   6 -13  -3   -5.52    9.75
   6 -13  -3   -2.42    3.10
   6 -13   4    5.28    2.58
   6  13  -4   -2.89    2.73
   6  13  -4  -20.11   12.32
  -6 -13  -4    1.37    3.43
  -6 -13  -4    6.01    6.19
  -6 -13  -4  -74.98   36.87
  -6 -13  -4    4.22   18.54
   6 -13  -4   -2.63   19.13
  -6 -13   4    5.91    5.00
  -6 -13   4   -2.01    2.28
  -6  13  -4    3.77    9.63
   6  13  -5    9.16   11.97
  -6 -13  -5  -21.30   41.12
  -6 -13  -5   -2.00    2.88
  -6 -13  -5    9.68    5.70
   6 -13   5    7.08    3.05
  -6 -13  -5    0.51   19.79
  -6 -13  -5    6.45    6.26
   6  13  -5    2.69    3.29
  -6  13  -5    7.77   11.25
  -6 -13   5   -1.20    2.47
  -6 -13   5   -0.47   18.23
  -6 -13   5    5.34    3.22
   6 -13  -5    3.91   21.86
   6 -13   6   -0.07    2.96
   6 -13   6  -25.21   21.65
  -6 -13  -6  -27.11   43.30
  -6 -13  -6    0.84    7.56
  -6 -13  -6   18.90   23.60
   6  13  -6    1.84    3.21
   6  13  -6   -3.66   14.90
  -6 -13  -6    5.09    4.27
  -6 -13  -6   23.18    7.69
  -6  13  -6    4.40    2.78
   6 -13  -6    0.91    3.42
  -6 -13   6   13.44    7.52
   6 -13  -6   -9.94   21.10
  -6  13  -6    6.86   12.97
  -6 -13   6   -1.32    2.97
  -6 -13   6  -31.34   16.11
  -6 -13  -7   37.26   45.61
   6  13  -7   -9.08   18.39
  -6 -13  -7   -0.19    6.23
   6 -13   7  -13.03   26.72
  -6 -13  -7    3.87    3.89
  -6 -13  -7   10.10   27.18
  -6 -13  -7   -0.13    7.55
  -6  13  -7    3.28    3.07
  -6  13  -7   20.42   15.52
   6 -13  -7  -25.85   25.12
   6 -13  -7    4.44   17.09
  -6 -13   7    9.59   25.04
   6 -13  -7    6.40    4.53
  -6 -13   7    2.69    4.49
  -6 -13   7    4.77    4.04
   6  13  -8    2.39    3.92
   6 -13   8    6.44   30.02
  -6 -13  -8    2.48    4.35
  -6 -13  -8   11.22   40.29
   6  13  -8    5.66   19.99
  -6 -13  -8   52.18   49.50
  -6 -13  -8   16.15    8.73
   6 -13  -8   -2.03    3.55
   6 -13  -8  -21.25   19.90
  -6 -13   8    2.66    5.31
  -6 -13   8  -12.48   25.12
   6 -13  -8   -8.79   29.93
  -6  13  -8    0.85    3.43
  -6  13  -8  -12.13   18.64
   7 -13   0   44.07   11.77
  -7 -13   0   26.54   11.72
   7  13   0   36.07   16.75
   7  13   0   19.14    7.12
   7 -13   0  -16.68   19.92
   7 -13   0   21.26    9.86
  -7 -13   0   38.85    5.19
   7 -13   0   29.15    6.79
  -7 -13  -1  124.61   16.04
  -7 -13  -1  131.31   27.33
   7  13  -1   62.21   23.55
   7 -13   1  155.19   21.67
   7 -13   1  134.20   15.88
   7 -13   1  108.96   20.85
  -7 -13  -1  121.40   15.29
   7  13  -1  123.84   20.25
   7 -13  -1  113.05   28.77
   7 -13  -1  104.24   16.31
  -7  13  -1  102.66   20.30
   7  13   1   95.40   27.45
   7  13   1   98.60   20.01
   7 -13  -1  135.69   24.52
  -7 -13   1   64.19   23.03
   7 -13  -1  122.40   19.91
  -7 -13   1  116.83   24.53
  -7 -13   1  110.92   15.21
  -7 -13  -2   88.14   14.55
   7 -13   2  111.43   14.35
  -7 -13  -2  128.55   27.67
  -7 -13  -2  145.94   52.85
   7 -13   2  138.13   28.57
   7 -13   2   90.23   21.65
  -7 -13  -2  106.75   14.28
  -7 -13  -2  126.56   27.24
   7  13  -2   92.15   15.42
   7  13  -2   72.19   24.56
   7 -13  -2  131.75   20.53
  -7 -13   2   96.54   21.52
  -7  13  -2   80.96   19.33
   7 -13  -2  134.28   18.05
   7  13   2   77.79   18.76
  -7 -13   2  112.32   14.27
  -7 -13   2  154.71   28.15
   7 -13  -2  157.96   28.60
   7 -13   3  199.34   24.40
  -7 -13  -3  118.31   32.61
  -7 -13  -3  156.66   57.90
   7  13  -3  175.34   25.33
  -7 -13  -3  196.89   25.00
   7  13  -3  132.18   34.36
   7 -13   3  128.65   31.70
  -7 -13  -3  196.81   34.87
  -7 -13  -3  222.58   24.83
   7 -13  -3  225.17   32.00
   7 -13  -3  183.50   34.74
  -7 -13   3  136.84   32.86
  -7 -13   3  200.14   29.83
  -7  13  -3  148.44   29.81
  -7 -13   3  208.99   24.44
   7 -13  -3  185.33   26.49
  -7 -13  -4   37.10   24.66
  -7 -13  -4  -18.04   40.96
  -7 -13  -4   46.95    8.61
   7 -13   4   44.38    7.81
  -7 -13  -4   46.48   13.96
   7  13  -4   36.75    8.27
   7  13  -4   16.20   17.20
  -7 -13  -4   48.37    8.82
   7 -13  -4   27.28   14.51
  -7 -13   4   52.92    8.47
  -7 -13   4   41.71   18.31
  -7  13  -4   37.75   13.61
   7 -13  -4    8.80   18.40
  -7 -13   4   50.97   13.12
   7 -13   5   78.88   11.99
  -7 -13  -5   96.05   46.71
   7  13  -5   76.25   14.07
   7  13  -5   84.07   26.48
  -7 -13  -5   86.45   22.32
  -7 -13  -5  101.24   12.72
  -7 -13  -5  119.93   17.15
   7 -13  -5   73.82   26.78
  -7  13  -5   53.41   18.98
  -7 -13   5   68.02   26.97
  -7 -13   5   85.15   18.65
   7 -13  -5   59.79   21.84
  -7 -13   5   79.27   11.94
  -7 -13  -6   48.96    9.37
   7  13  -6   65.00   11.00
  -7 -13  -6   93.65   51.59
  -7 -13  -6   68.55   13.97
   7 -13   6   -9.23   26.13
  -7 -13  -6  -10.60   34.18
   7  13  -6    3.74   18.40
  -7 -13  -6   62.93   19.26
  -7 -13   6   57.17   16.14
  -7  13  -6   11.43   15.69
   7 -13  -6   48.16   25.74
  -7 -13   6   53.05    9.93
  -7 -13   6   26.43   24.92
   7 -13  -6   44.13   20.42
   7 -13  -6   51.02   10.83
   7  13  -7   43.77   25.33
  -7 -13  -7   67.63   12.12
  -7 -13  -7   63.52   52.75
  -7 -13  -7   99.43   17.76
   7 -13   7   33.76   34.22
  -7 -13  -7  -33.20   36.13
  -7 -13  -7   71.85   20.78
   7  13  -7   76.98   13.16
   7 -13  -7   81.58   14.62
   7 -13  -7   32.39   21.77
  -7  13  -7   26.78   21.87
   7 -13  -7   -1.16   26.28
  -7 -13   7   74.57   13.08
  -7 -13   7  107.52   22.28
   7  13  -8    9.34   24.19
   7  13  -8   18.02    6.18
  -7 -13  -8   24.88    6.39
  -7 -13  -8  -11.51   40.07
  -7 -13  -8   -1.65    8.57
  -7 -13  -8   -3.00   60.39
  -7 -13   8  -14.77   34.39
   7 -13  -8   30.95    7.94
  -7  13  -8    1.28    2.04
  -7 -13   8   19.60    9.08
   7 -13  -8    8.88   29.34
  -7 -13   8    4.91    4.77
  -8 -13   0   19.44   12.13
  -8 -13   0    2.66    1.98
   8  13   0    4.29    4.50
   8  13   0    7.32   16.53
  -8 -13   0    5.45    4.61
  -8 -13   0   -0.96    2.29
   8 -13   0   12.65    3.94
   8 -13   0   -0.44    3.86
   8 -13   1    6.28    2.67
   8  13  -1    4.49    4.24
   8 -13   1   -1.37    4.60
   8  13  -1   -1.39   16.31
  -8 -13  -1    3.10    1.91
  -8 -13  -1    0.42    2.12
  -8 -13  -1    9.81    7.77
  -8 -13  -1   -5.23   12.75
  -8 -13   1    2.63    3.53
   8 -13  -1    1.56    3.28
   8  13   1    9.55    3.93
   8 -13  -1    1.26    5.24
  -8 -13   1    1.70    1.98
  -8 -13   1    1.45    2.34
  -8 -13   1   16.44   12.11
  -8 -13  -2    8.96    2.28
   8 -13   2    2.82   13.00
  -8 -13  -2  -15.77   15.56
   8  13  -2    1.12    3.69
  -8 -13  -2  -67.19   42.40
  -8 -13  -2    1.51    2.69
  -8 -13  -2    9.63    9.14
   8  13  -2   -8.10   15.96
   8 -13   2    8.50    2.22
  -8 -13   2    8.95   14.53
  -8 -13   2   -0.62    2.74
   8 -13  -2    1.06    3.52
   8  13   2   13.24    4.82
  -8  13  -2   -0.65    9.21
   8 -13  -2   14.59    6.67
  -8 -13   2   -1.94    1.81
   8  13  -3    0.16    3.35
   8 -13   3    5.95    2.34
  -8 -13  -3    5.20    2.24
  -8 -13  -3    0.52    6.15
  -8 -13  -3  -61.56   46.04
   8 -13   3   -5.45   15.97
  -8 -13  -3    0.01    2.06
   8  13  -3   -4.59   19.41
  -8 -13  -3   -9.96   17.75
  -8 -13   3   14.62    7.38
  -8 -13   3   -0.12    1.70
   8 -13  -3  -10.84   11.61
  -8 -13   3   -1.04   13.35
   8 -13  -3   -6.10    9.78
   8 -13  -3   -0.31    3.79
  -8  13  -3    1.93   10.08
  -8 -13  -4    5.30    8.16
   8  13  -4    0.22    3.35
  -8 -13  -4  -20.84   45.36
  -8 -13  -4    2.87    2.79
   8  13  -4    8.10   20.53
  -8 -13  -4    9.82   22.62
  -8 -13  -4    3.99    2.50
   8 -13   4   -6.26   19.19
   8 -13   4    3.31    2.50
  -8 -13   4   11.04    5.92
   8 -13  -4  -12.54   12.46
   8 -13  -4   17.87   15.61
  -8  13  -4    2.66   11.65
   8 -13  -4    0.34    3.42
  -8 -13   4   13.99   19.64
  -8 -13   4    1.16    2.26
  -8 -13  -5    3.57    6.78
   8 -13   5   -1.53   25.70
   8 -13   5    3.31    3.27
  -8 -13  -5 -120.89   44.33
   8  13  -5    1.88   24.28
   8  13  -5   -0.84    3.08
  -8 -13  -5    5.36    3.05
  -8 -13  -5    0.71    2.57
  -8 -13  -5   -1.89   31.33
  -8 -13   5    0.75    2.64
   8 -13  -5   -6.87   16.00
  -8 -13   5    6.85   18.68
   8 -13  -5   19.47   18.82
  -8  13  -5   14.59   13.56
  -8 -13   5    8.81    7.46
  -8 -13  -6  -31.11   39.63
   8  13  -6    0.19    3.63
  -8 -13  -6    1.65    3.62
   8 -13   6   40.85   33.70
  -8 -13  -6   -3.79    5.09
  -8 -13  -6   96.31   53.94
  -8 -13  -6   -2.11    2.55
   8  13  -6  -14.04   22.96
  -8  13  -6  -11.76   15.71
   8 -13  -6    9.50    5.13
   8 -13  -6  -24.18   20.63
  -8 -13   6    0.34    5.01
  -8 -13   6   -1.14    2.57
   8 -13  -6  -21.35   18.54
  -8 -13   6   34.60   23.29
  -8 -13  -7    9.46    9.84
  -8 -13  -7    1.91    2.85
  -8 -13  -7  -10.48   58.42
  -8 -13  -7    4.89    4.89
   8  13  -7   -2.54    2.75
   8  13  -7   11.46   24.88
  -8 -13  -7   40.05   72.95
   8 -13  -7   12.75   25.07
  -8 -13   7   -0.74    5.64
  -8 -13   7  -14.32   32.11
   8 -13  -7   -1.14    3.10
  -8 -13   7   -0.28    2.47
  -9 -13   0  118.66   25.19
   9  13   0   52.60   14.74
   9 -13   0   93.61   12.37
  -9 -13   0   93.44   22.71
   9  13  -1  121.27   30.38
   9 -13   1  111.38   13.63
  -9 -13  -1   37.10   53.95
   9  13  -1   92.68   17.81
  -9 -13  -1   91.18   22.39
   9 -13  -1   85.14   14.22
  -9 -13   1  123.78   25.64
   9  13   1   88.82   19.39
   9 -13  -1  110.85   23.96
  -9 -13   1   97.23   25.28
  -9 -13  -2   33.79   13.90
   9  13  -2   29.80    8.30
  -9 -13  -2   98.10   53.41
  -9 -13  -2   17.87   16.84
   9  13  -2   26.48   21.89
   9 -13   2   28.19    5.44
   9 -13  -2   21.83    9.15
  -9 -13   2    5.39   17.31
   9  13   2   22.09    9.68
   9 -13  -2   26.61    7.77
  -9 -13   2   48.04   16.59
   9 -13   3   61.88    8.65
  -9 -13  -3   35.01   21.68
   9  13  -3   72.35   12.69
  -9 -13  -3   31.40   15.49
   9  13  -3   61.42   25.10
  -9 -13  -3  -22.26   51.47
   9 -13  -3   66.82   14.65
  -9 -13   3   40.33   20.32
  -9 -13   3   62.47   16.31
   9 -13   4   41.98    7.95
  -9 -13  -4   -9.19   52.18
  -9 -13  -4  110.97   26.63
   9  13  -4    6.14   26.30
   9 -13   4    1.52   27.55
  -9 -13  -4    1.92   29.12
   9  13  -4   31.35    8.26
  -9  13  -4   18.75   14.60
  -9 -13   4   48.95   14.79
  -9 -13   4   36.03   23.73
   9 -13  -4   55.52   11.53
   9 -13   5   73.45   11.35
   9 -13   5   43.24   35.50
   9  13  -5   81.37   12.71
  -9 -13  -5    2.27   56.04
  -9 -13  -5   28.68   17.40
  -9 -13  -5  -20.76   34.15
   9  13  -5   38.01   31.76
   9 -13  -5   74.23   20.40
   9 -13  -5   51.78   18.49
   9 -13  -5   60.70   11.32
  -9  13  -5   45.13   18.09
  -9 -13   5   82.70   20.82
  -9 -13   5  -20.94   22.33
 -10 -13   0  -11.83   13.90
  10  13   0    1.65    3.40
 -10 -13   0   14.18    9.87
  10 -13   0    2.67    2.98
 -10 -13  -1  -10.76   15.83
 -10 -13  -1    5.77    7.40
  10  13  -1   10.02    5.92
  10 -13   1    0.60    2.19
  10  13  -1  -16.46   21.88
 -10 -13  -1    4.61   62.20
  10  13   1   -3.45    4.09
  10 -13  -1   -3.41    2.57
 -10 -13   1   -5.05   16.70
 -10 -13   1    9.68    7.07
  10  13  -2    1.85    4.06
  10  13  -2   21.56   26.51
 -10 -13  -2   28.17   56.80
 -10 -13  -2  -13.40   19.21
 -10 -13  -2   19.18    9.22
  10 -13   2    7.42    2.53
  10  13   2    6.67    4.75
 -10 -13   2  -13.35   17.71
 -10 -13   2    3.20    6.83
  10 -13  -2   -0.93    3.43
  10 -13  -2   -0.83    6.83
 -10 -13  -3   15.31    8.71
  10  13  -3   -3.02   26.69
  10 -13   3    3.64    2.97
 -10 -13  -3  -10.45   21.83
  10  13  -3   -2.53    3.45
 -10 -13   3   18.97   21.66
 -10 -13   3   12.57    9.51
  10 -13  -3    5.39    5.97
   0 -14   0  129.76   16.63
   0  14   0   98.95   18.55
   0 -14   0  136.41   23.22
   0  14   0   89.96   21.77
   0  14   1  184.68   31.71
   0 -14  -1  128.00   22.49
   0  14   1   69.21   15.95
   0  14  -1   91.24   14.74
   0 -14  -1  126.46   15.84
   0  14  -1  100.98   20.63
   0  14   2   44.27   14.30
   0 -14  -2   41.01   15.46
   0 -14   2   83.47   18.60
   0  14  -2   75.89   21.97
   0 -14  -2   78.45   14.41
   0  14  -2   73.66   12.62
   0 -14   2   56.77    9.00
   0 -14  -3  149.60   25.82
   0 -14  -3  108.31   16.19
   0  14  -3  106.31   15.35
   0  14  -3  101.16   22.03
   0 -14   3  121.16   14.91
   0 -14  -3   60.48   34.26
   0 -14   3   71.82   18.32
   0 -14  -3  106.78   21.23
   0 -14  -4  808.86  128.76
   0 -14  -4  446.13   72.96
   0 -14  -4  582.41   79.84
   0 -14  -4  557.13   71.60
   0  14  -4  596.76   70.65
   0 -14   4  623.58   70.30
   0 -14   4  483.44   76.14
   0 -14  -5   65.73   13.06
   0 -14  -5   63.41   23.08
   0 -14  -5   -4.39   29.30
   0 -14   5   96.50   13.03
   0  14  -5   86.36   12.74
   0 -14  -5   45.18   13.98
   0  14  -5   50.19   16.86
   0 -14   5   25.86   16.93
   0  14  -6  136.90   18.90
   0 -14  -6  126.49   19.53
   0 -14  -6   90.49   44.67
   0 -14  -6  108.54   29.18
   0  14  -6  192.23   34.38
   0 -14  -6  132.47   19.90
   0 -14   6  141.33   18.84
   0 -14   6  222.31   45.58
   0 -14   7   24.34   27.17
   0 -14  -7   67.76   14.06
   0 -14  -7   68.26   13.87
   0 -14  -7   78.80   36.75
   0 -14  -7  154.02   48.84
   0  14  -7   70.51   12.70
   0 -14   8  114.55   37.09
   0 -14  -8   80.64   27.94
   0  14  -8   90.79   25.21
   0 -14  -8   85.43   41.83
   0  14  -8  107.29   16.47
   0 -14  -8  145.54   18.70
   0 -14  -9   73.25   14.82
   0 -14  -9   38.87   25.52
   0  14  -9   72.24   35.36
   0  14  -9   83.32   13.89
   0 -14  -9   -3.59   41.01
   0 -14   9   68.41   48.99
   0 -14  10   -0.85   36.93
   0 -14 -10   48.75   11.61
   0  14 -10   29.63   26.11
   0  14 -10   54.34   11.24
   0 -14 -10   94.97   54.06
   1 -14   0    7.57    8.26
   1 -14   0    2.74    3.22
   1  14   0    8.76    3.84
  -1  14   0    4.13    2.65
  -1  14   0   -2.31    6.74
   1  14   0    3.89    9.14
  -1 -14   0    5.40    2.70
  -1 -14   0   -1.37    9.57
  -1  14   1   -3.99    7.51
   1 -14   1   -3.74    5.14
   1 -14   1    1.46    1.47
   1  14  -1   -0.68    2.27
  -1 -14  -1    8.34    8.78
  -1 -14  -1    1.35    2.67
   1  14  -1    8.02    8.16
   1 -14  -1    1.05    3.14
   1 -14  -1   -0.16    7.38
  -1  14  -1    0.45    1.73
  -1 -14   1   -3.36    7.38
   1  14   1    3.73    8.58
   1  14   1   -2.15    1.48
  -1 -14   1    6.15    2.96
  -1  14  -1   -1.67    6.65
  -1  14   2    7.78    7.86
   1 -14   2    7.34    7.86
   1  14  -2    6.23   14.95
  -1 -14  -2   -2.20    8.21
   1  14  -2    0.81    2.77
  -1 -14  -2   -1.10    3.46
   1 -14   2    1.98    2.22
  -1 -14  -2   -1.68    1.97
   1 -14  -2    3.57    8.65
  -1 -14   2   16.40   10.38
   1 -14  -2    1.76    4.01
  -1 -14   2    2.22    2.01
  -1  14  -2   -7.01    6.83
   1  14   2  -12.60   10.88
  -1  14  -2    1.37    2.75
  -1 -14  -3    2.17    3.30
  -1 -14  -3   30.41   38.40
   1 -14   3   -4.44    5.64
   1  14  -3   -4.62    9.98
  -1 -14  -3  -10.02   10.21
   1 -14   3    1.35    1.98
   1  14  -3   -1.62    2.68
  -1 -14  -3    0.56    4.38
   1 -14  -3    1.39    8.96
  -1 -14   3    6.37   11.08
   1 -14  -3   -6.17    3.01
   1 -14  -3   17.02   23.93
  -1 -14   3    2.47    1.88
  -1  14  -3    0.79    3.29
  -1  14  -3   -2.32    6.84
  -1 -14  -4    2.84    3.94
  -1 -14  -4    5.03   13.34
  -1 -14  -4   -6.10    3.15
   1 -14   4   -6.61    9.67
   1  14  -4   -7.15    7.86
  -1 -14  -4   27.63   52.39
   1 -14   4    1.07    2.45
   1  14  -4    0.08    2.64
  -1  14  -4   -0.20    2.90
   1 -14  -4    5.10    6.13
  -1 -14   4    2.54    2.51
   1 -14  -4   -8.79   13.73
  -1 -14   4   -4.09   19.43
   1 -14  -4    3.08    3.07
  -1  14  -4   -0.87    9.16
   1 -14  -4    3.22   25.66
  -1 -14  -5   -9.45   13.45
   1 -14   5    1.36   11.44
  -1 -14  -5    2.57   45.83
   1  14  -5   -9.71   11.86
   1 -14   5    3.93    2.36
  -1 -14  -5   -3.37    5.41
   1  14  -5   -1.47    2.40
  -1 -14  -5    2.09    3.56
  -1  14  -5   -0.02    3.17
  -1 -14   5    3.53   13.04
   1 -14  -5   -3.04    2.14
   1 -14  -5    5.78   26.97
   1 -14  -5  -12.57   13.24
  -1  14  -5   -2.89   10.54
  -1 -14   5    1.03    2.78
  -1 -14  -6    1.19    3.61
   1  14  -6    2.91   11.86
  -1 -14  -6   10.77   18.28
   1 -14   6   24.93   15.37
  -1 -14  -6  -71.59   31.23
   1 -14   6   10.33    3.57
  -1 -14  -6   -5.48    3.77
   1  14  -6    3.77    3.24
   1 -14  -6    4.19    3.76
   1 -14  -6    3.12   14.89
   1 -14  -6   27.84   29.54
  -1  14  -6    3.16   17.62
  -1 -14   6    2.07    2.35
  -1  14  -6    5.53    3.90
  -1 -14   6  -23.05   14.14
   1  14  -7  -10.07   11.75
  -1 -14  -7  -17.44   32.71
  -1 -14  -7    1.51    4.87
  -1 -14  -7    5.02    4.72
   1 -14   7   18.98   18.17
  -1 -14  -7  -21.69   14.64
   1  14  -7    1.78    3.52
  -1  14  -7   18.80   13.65
   1 -14  -7  -13.97   15.22
   1 -14  -7    5.16    5.24
  -1 -14   7  -10.90   16.78
   1 -14  -7   43.32   53.08
  -1  14  -7   -1.96    2.85
  -1 -14  -8   11.21    5.68
  -1 -14  -8   11.94    5.05
  -1 -14  -8   14.85   34.92
   1  14  -8    0.75    3.39
  -1 -14  -8    6.80   19.89
   1  14  -8   -3.48   30.66
   1 -14   8  -10.28   22.16
   1 -14  -8  -26.77   31.07
  -1  14  -8   -0.80    3.47
  -1  14  -8  -18.73   14.78
   1 -14  -8   18.01   18.73
   1 -14  -8    0.82    4.03
  -1 -14   8    0.09   32.80
  -1 -14  -9  -45.78   37.27
   1 -14   9   33.32   29.18
   1  14  -9   16.01   20.39
   1  14  -9    0.52    3.76
  -1 -14  -9   13.63    6.44
  -1 -14  -9   -5.87   25.01
  -1  14  -9   10.74   19.99
  -1  14  -9    6.37    4.91
  -1 -14   9   14.07   33.41
   1 -14  -9    8.36    5.70
   1 -14  -9   11.25   37.69
   1  14 -10    1.46    4.07
  -1 -14 -10   94.36   50.10
  -1 -14 -10  -29.44   25.12
  -1 -14 -10   -3.28    4.37
   1  14 -10   39.71   53.65
   1 -14 -10   23.60   42.01
  -1  14 -10    3.27   25.33
  -1 -14  10  -10.98   32.89
  -1  14 -10   -2.46    3.33
   1 -14 -10    8.08    5.41
   2  14   0   52.34   18.30
  -2 -14   0   29.71   13.60
   2 -14   0   53.65   15.46
  -2 -14   0   74.27    9.73
   2 -14   0   80.26   12.52
   2  14   0   57.33   12.55
   2 -14   1   96.17   13.29
  -2  14   1  100.91   21.57
   2 -14   1   92.23   19.49
   2  14  -1   72.36   19.35
  -2 -14  -1  101.89   18.42
  -2 -14  -1   91.35   13.83
  -2 -14  -1   97.54   22.18
   2  14  -1   88.06   15.77
  -2 -14   1  106.68   13.09
  -2  14  -1   72.32   14.68
  -2  14  -1   75.55   17.52
   2 -14  -1  143.53   24.04
   2 -14  -1   91.70   16.41
  -2 -14   1  117.67   24.56
   2  14   1   69.04   15.77
   2  14   1   82.32   19.97
   2  14  -2  317.40   44.02
   2 -14   2  307.90   47.90
   2 -14   2  368.77   43.48
  -2 -14  -2  337.56   45.79
  -2 -14  -2  379.82   45.53
   2  14  -2  324.36   49.29
  -2 -14  -2  347.67   51.87
  -2  14  -2  284.08   47.50
  -2 -14   2  368.64   43.40
   2 -14  -2  369.94   50.38
   2 -14  -2  308.83   45.21
   2  14   2  432.16   55.99
   2 -14   3   51.58    8.24
  -2 -14  -3   71.44   14.10
   2  14  -3   62.03   11.17
   2  14  -3   37.23   13.57
  -2 -14  -3   54.34   13.31
  -2 -14  -3  126.55   30.79
   2 -14   3   36.09   13.27
   2 -14  -3   49.15   12.47
   2 -14  -3  130.70   38.07
   2 -14  -3   70.80   17.15
  -2  14  -3   52.87   10.60
  -2 -14   3   73.12   10.46
  -2  14  -3   36.11   12.74
  -2 -14   3  115.64   32.47
   2  14  -4  367.47   46.58
  -2 -14  -4  393.24   49.17
   2  14  -4  516.57   62.71
  -2 -14  -4  218.04   68.59
  -2 -14  -4  398.46   50.47
   2 -14   4  381.70   46.15
   2 -14   4  353.13   53.61
  -2 -14   4  374.71   46.20
   2 -14  -4  359.71   46.60
   2 -14  -4  277.06   66.79
  -2  14  -4  340.80   46.49
  -2 -14   4  354.81   53.85
   2 -14  -4  328.90   54.00
  -2  14  -4  352.99   51.64
  -2 -14  -5  102.78   27.21
   2  14  -5   86.07   13.38
   2  14  -5  110.09   22.65
  -2 -14  -5  103.62   19.82
   2 -14   5   88.29   13.14
   2 -14   5   86.88   23.54
  -2 -14  -5  112.00   22.72
  -2 -14  -5  123.60   45.46
  -2 -14  -5   73.22   15.67
   2 -14  -5   77.33   23.54
  -2 -14   5  108.99   13.57
  -2 -14   5   84.67   22.87
  -2  14  -5   89.98   13.54
   2 -14  -5   77.27   32.48
  -2  14  -5   97.19   22.47
  -2 -14  -6  208.49   57.01
  -2 -14  -6  247.93   35.87
   2 -14   6  270.45   33.30
   2 -14   6  234.22   46.64
  -2 -14  -6  249.71   48.34
  -2 -14  -6  231.78   34.21
   2  14  -6  349.24   51.99
   2  14  -6  238.35   33.21
  -2 -14  -6  249.23   37.74
  -2 -14   6  329.38   60.13
   2 -14  -6  256.22   45.24
  -2  14  -6  267.35   44.11
   2 -14  -6  279.45   59.05
  -2  14  -6  227.50   33.04
  -2 -14   6  295.53   33.55
   2  14  -7   87.50   14.04
  -2 -14  -7  100.86   17.72
   2 -14   7   30.18   25.56
  -2 -14  -7  123.70   17.40
  -2 -14  -7  102.47   43.27
  -2 -14  -7   80.41   46.57
   2  14  -7  109.18   31.83
   2 -14  -7   91.63   17.63
  -2  14  -7  110.56   26.73
  -2  14  -7   93.47   15.64
   2 -14  -7   74.37   36.54
   2 -14  -7   60.63   24.34
  -2 -14   7  208.62   46.90
  -2 -14  -8  109.90   49.65
   2 -14   8   44.93   31.58
  -2 -14  -8  135.73   18.94
   2  14  -8   95.87   17.05
   2  14  -8  138.88   40.16
  -2 -14  -8  107.39   19.49
  -2 -14  -8  150.73   57.33
   2 -14  -8   83.09   28.31
  -2 -14   8  130.09   35.12
   2 -14  -8  111.07   19.68
   2 -14  -8  132.02   47.20
  -2  14  -8   44.79   24.45
  -2  14  -8  115.11   18.05
  -2 -14  -9   53.00   50.72
   2  14  -9   64.31   27.83
   2 -14   9   -9.77   58.14
  -2 -14  -9   28.77    8.98
   2  14  -9   13.62    6.24
  -2 -14  -9   45.71   28.03
   2 -14  -9   30.03    8.87
  -2  14  -9   52.38   26.38
   2 -14  -9  -63.10   31.98
  -2 -14   9   19.82   30.56
  -2  14  -9   22.94    6.38
  -2 -14 -10   58.53   12.15
  -2 -14 -10   51.85   52.86
  -2 -14 -10    0.43   29.97
   2 -14  10  -15.43   39.26
   2  14 -10   26.45   34.52
   2  14 -10   44.25   10.11
  -2 -14  10   60.01   52.45
   2 -14 -10   54.34   12.74
  -2  14 -10   40.96    9.44
   2 -14 -10  -17.44   53.81
  -2  14 -10   37.13   25.74
  -3  14   0  -10.73    6.83
  -3 -14   0    2.05    3.84
   3  14   0  -17.07   15.94
   3 -14   0    2.44    2.98
   3  14   0   -0.64    3.37
   3 -14   0  -12.61    6.10
  -3 -14   0    4.00    1.87
  -3 -14   0   23.71   13.66
  -3 -14  -1   -3.38    9.89
   3  14  -1    1.04    3.20
  -3  14   1   -6.80    7.45
   3 -14   1    2.10    1.93
  -3 -14  -1    2.15    2.52
   3 -14   1   -0.62    6.21
   3  14  -1   -8.45   15.32
  -3 -14  -1    5.87    4.55
  -3 -14   1   22.65   19.98
   3 -14  -1   -0.18    3.26
  -3  14  -1    3.11    2.01
  -3 -14   1    2.19    2.40
   3  14   1    4.26    9.85
   3  14   1    1.88    3.39
  -3  14  -1    4.29    7.53
   3 -14  -1  -11.38    6.83
   3 -14   2    1.18    2.01
   3 -14   2   -2.75    5.80
  -3 -14  -2  -18.96    8.96
  -3 -14  -2    2.36    3.64
   3  14  -2   -1.87    2.14
   3  14  -2    6.20    9.84
  -3 -14  -2    9.17    3.14
   3 -14  -2    2.74    8.98
   3 -14  -2   -2.90    3.07
  -3 -14   2    9.37    9.89
  -3  14  -2    1.64    2.19
  -3  14  -2   -6.95    8.39
   3  14   2    9.98    3.90
  -3 -14   2   -0.38    1.82
   3  14   2   -1.47   10.72
  -3 -14  -3    1.58    3.57
  -3 -14  -3 -134.97   46.65
  -3 -14  -3   -8.82   10.99
   3 -14   3    1.29    1.62
  -3 -14  -3    1.35    3.15
   3  14  -3    0.97    2.91
   3  14  -3  -11.00   11.81
   3 -14   3   -6.32   10.09
  -3 -14   3   -2.66    5.96
   3 -14  -3    4.66   24.99
   3 -14  -3   -2.41    9.71
   3 -14  -3    2.85    4.52
  -3  14  -3    5.89    8.52
  -3  14  -3    3.07    2.99
  -3 -14   3    2.69    2.82
   3  14  -4    1.27    3.12
   3  14  -4    3.74   10.55
   3 -14   4   -7.88    9.30
   3 -14   4    3.69    1.89
  -3 -14  -4    4.25    5.41
  -3 -14  -4   12.31   12.79
  -3 -14  -4   -2.98   32.76
  -3 -14  -4    2.63    4.33
  -3  14  -4    3.52    9.07
  -3 -14   4    3.48    2.43
  -3 -14   4    2.55   10.26
   3 -14  -4  -31.90   21.99
   3 -14  -4   23.67   14.75
  -3  14  -4    2.64    3.18
   3 -14   5  -17.16   12.48
  -3 -14  -5    3.13    3.95
  -3 -14  -5    6.15   17.09
   3  14  -5   -9.16   12.16
  -3 -14  -5    8.70   37.50
   3  14  -5   -1.05    2.70
  -3 -14  -5    1.81    3.28
   3 -14   5    4.88    2.85
  -3 -14  -5    2.69    6.67
   3 -14  -5   -6.87   11.78
  -3 -14   5    6.99    3.33
  -3 -14   5  -10.20   12.95
  -3  14  -5    8.94   10.61
   3 -14  -5  -16.07   23.68
  -3  14  -5   -3.46    2.59
  -3 -14  -6  -38.19   34.05
   3  14  -6    1.99    3.85
   3 -14   6   -8.80   17.42
  -3 -14  -6   12.16    6.69
  -3 -14  -6    4.16    4.60
   3 -14   6    2.27    2.27
  -3 -14  -6   -3.73    5.70
   3  14  -6   28.59   20.60
  -3 -14  -6    0.56   21.84
  -3 -14   6   -3.17    2.76
  -3  14  -6   -0.83   11.05
  -3 -14   6   14.63   16.84
   3 -14  -6   -1.06   13.32
   3 -14  -6    2.04   25.08
  -3  14  -6    2.82    3.85
  -3 -14  -7    2.00    4.37
  -3 -14  -7   43.36   60.26
  -3 -14  -7   16.91   22.18
   3 -14   7    3.77   21.34
  -3 -14  -7    8.29    7.16
   3  14  -7  -17.26   13.87
   3  14  -7    0.52    3.12
  -3 -14   7  -31.73   17.97
  -3  14  -7   -7.60   13.47
   3 -14  -7    7.14    4.85
   3 -14  -7   19.90   26.94
  -3  14  -7   -1.88    3.21
   3 -14  -7    4.85   18.24
   3  14   7    6.07    6.16
   3  14  -8   -2.02    3.20
   3 -14   8    6.99   28.46
  -3 -14  -8  -64.18   61.02
   3  14  -8  -25.44   27.25
  -3 -14  -8   -1.44    6.63
  -3 -14  -8    2.51    4.63
  -3 -14  -8   44.75   41.59
   3 -14  -8   12.76    5.80
  -3 -14   8   17.65   31.47
  -3  14  -8    3.89    3.90
  -3  14  -8    2.58   16.90
   3  14   8   -2.10    5.66
   3 -14  -8   24.07   26.39
  -3 -14  -9   11.97    7.23
   3  14  -9    8.55   21.12
  -3 -14  -9   55.56   54.02
   3  14  -9    4.52    4.44
  -3 -14  -9    2.82    4.46
  -3 -14  -9    4.24   26.35
   3 -14   9   -3.77   33.49
   3 -14  -9    6.16   19.99
  -3  14  -9   -6.43   21.37
   3  14   9    4.29    7.24
   3 -14  -9    0.63    3.23
  -3  14  -9    2.19    3.80
   3 -14  -9    8.32   36.96
  -3 -14   9  -40.14   40.18
   3  14 -10   -4.50    2.49
   3  14 -10   28.21   26.98
  -3 -14 -10    4.09    3.88
  -3 -14 -10   28.85   57.65
  -3 -14 -10   10.86   36.55
   3 -14  10   -8.20   49.26
  -3 -14  10  -35.37   38.95
   3 -14 -10   12.49    5.66
   3 -14 -10    6.02   36.38
  -3  14 -10  -26.29   54.88
   3  14  10    0.73    8.00
   3 -14 -10  -20.36   25.46
  -3  14 -10    0.66    4.05
  -4 -14   0  508.03   71.01
  -4  14   0  491.69   71.85
   4 -14   0  529.47   71.40
  -4 -14   0  583.84   74.78
  -4 -14   0  591.99   67.90
   4 -14   0  579.04   68.71
   4  14   0  479.19   73.88
  -4 -14  -1  205.56   24.22
   4 -14   1  196.85   24.00
  -4 -14  -1  217.84   35.80
   4 -14   1  179.84   27.92
   4  14  -1  253.23   41.35
  -4 -14  -1  151.30   26.27
  -4  14   1  178.86   30.57
   4  14  -1  163.57   24.51
   4  14   1  190.10   34.76
   4 -14  -1  144.54   24.37
   4 -14  -1  188.05   28.89
  -4 -14   1  186.58   27.13
  -4  14  -1  158.03   30.54
  -4 -14   1  194.28   23.51
  -4 -14   1  143.47   30.18
   4 -14   2  374.88   43.73
   4 -14   2  390.44   49.44
  -4 -14  -2  378.51   44.89
  -4 -14  -2  325.45   47.06
  -4 -14  -2  349.11   53.26
   4  14  -2  272.53   49.75
   4  14  -2  346.72   44.54
   4 -14  -2  244.48   62.26
   4 -14  -2  335.66   49.17
  -4 -14   2  349.14   43.46
  -4 -14   2  351.72   50.30
  -4  14  -2  321.32   48.33
  -4 -14   2  373.18   47.56
   4  14   2  273.67   50.70
   4  14  -3   52.44   18.60
   4 -14   3   93.36   20.11
  -4 -14  -3   88.41   17.46
  -4 -14  -3   53.22   40.91
   4  14  -3   80.36   13.39
  -4 -14  -3  106.93   17.32
  -4 -14  -3   77.39   22.98
   4 -14   3   74.29   10.53
   4 -14  -3   69.72   18.78
   4 -14  -3   59.33   28.92
  -4 -14   3   74.54   10.60
  -4  14  -3   34.93   15.22
   4 -14   4  151.56   32.05
  -4 -14  -4  197.37   41.70
  -4 -14  -4   61.26   43.72
  -4 -14  -4  235.52   26.80
  -4 -14  -4  155.30   23.50
   4  14  -4  161.54   30.05
  -4 -14  -4  202.69   27.38
   4  14  -4  167.96   23.02
   4 -14   4  182.48   22.55
   4 -14  -4  241.81   36.78
  -4  14  -4  144.95   28.60
  -4 -14   4  183.35   22.76
  -4  14  -4  136.59   22.58
   4 -14  -4  205.45   46.48
  -4 -14   4  154.44   33.41
   4 -14   5   88.40   11.39
  -4 -14  -5   60.91   13.45
   4  14  -5   43.53   18.23
  -4 -14  -5  113.02   22.64
  -4 -14  -5   60.61   43.26
   4  14  -5   95.35   14.14
   4 -14   5   44.20   21.71
  -4 -14  -5  139.58   39.89
  -4 -14  -5  102.60   20.52
  -4  14  -5   95.95   21.35
   4 -14  -5   41.66   29.72
   4 -14  -5   42.77   19.69
  -4 -14   5   48.71   19.91
  -4 -14   5   96.09   14.03
  -4  14  -5   60.78   12.49
   4  14   5   82.38   16.67
   4 -14   6  143.67   19.69
  -4 -14  -6  171.02   31.47
  -4 -14  -6  133.51   22.93
  -4 -14  -6  126.47   53.37
   4  14  -6  146.16   20.00
   4 -14   6  137.92   33.76
  -4 -14  -6  193.52   47.39
  -4 -14  -6  161.92   29.56
   4  14  -6  189.10   32.86
   4 -14  -6   94.05   28.13
  -4  14  -6  155.30   29.62
   4  14   6  155.62   22.86
   4 -14  -6  108.15   36.17
  -4  14  -6  121.71   19.46
  -4 -14   6  146.85   41.16
  -4 -14   6  156.81   20.02
  -4 -14  -7   25.92    7.41
   4  14  -7   38.30   19.81
  -4 -14  -7  -19.95   23.86
  -4 -14  -7   24.99   12.28
   4  14  -7   22.69    6.46
  -4 -14  -7  -22.76   42.40
  -4 -14   7   -8.51   23.87
   4 -14  -7   31.88    8.82
   4 -14  -7   33.03   29.42
   4  14   7   40.79   12.73
  -4  14  -7   18.11    5.86
  -4  14  -7    3.89   15.06
  -4 -14  -8   59.91   12.07
   4 -14   8   82.94   35.95
  -4 -14  -8   70.35   17.81
   4  14  -8   40.90   21.45
  -4 -14  -8   98.37   49.15
   4  14  -8   58.83   11.59
  -4 -14  -8  -52.30   42.30
  -4  14  -8   45.94   21.10
   4 -14  -8   58.99   30.87
   4 -14  -8   47.35   12.31
  -4  14  -8   57.88   10.96
   4 -14  -8   55.86   24.72
  -4 -14   8   57.57   30.07
  -4 -14  -9   43.26   10.70
  -4 -14  -9   52.58   29.30
   4  14  -9   12.43   25.81
  -4 -14  -9   70.03   17.45
  -4 -14  -9  147.72   64.96
   4 -14   9   60.20   44.58
   4  14  -9   34.93    9.25
   4 -14  -9    3.76   23.04
   4 -14  -9   50.28   11.62
  -4  14  -9   44.29    8.87
  -4  14  -9  -18.29   22.09
   4 -14  -9   50.78   40.19
  -4 -14   9  -29.20   30.54
  -5 -14   0    1.49    2.26
   5 -14   0    3.86    7.65
   5 -14   0   -0.69    2.52
   5  14   0    3.97   11.89
  -5  14   0  -11.98    7.85
  -5 -14   0    1.40    8.66
  -5 -14   0    5.03    4.45
   5  14   0    0.13    2.84
  -5 -14  -1    8.81    3.15
   5  14  -1    6.77   11.85
  -5 -14  -1    2.01    5.33
   5 -14   1    8.83    2.81
   5  14  -1   -3.10    2.51
   5 -14   1   -0.95    6.78
  -5 -14  -1    0.01   11.81
   5  14   1  -12.19   10.86
  -5 -14   1    5.77    6.88
  -5 -14   1    0.55    2.28
  -5 -14   1    4.51    4.96
   5 -14  -1    2.64    7.67
   5  14   1   13.70    4.87
  -5  14  -1   -5.30    7.75
   5 -14  -1   -3.14    2.90
  -5 -14  -2   10.88    3.34
  -5 -14  -2    0.43    4.62
   5  14  -2   -1.81    3.00
   5  14  -2   -5.46    9.96
  -5 -14  -2    9.60   11.91
   5 -14   2    0.73    2.08
   5 -14   2   -7.43    8.44
   5 -14  -2    2.03    4.07
  -5 -14   2    1.45    2.22
  -5 -14   2    3.91   10.39
   5  14   2    7.02    3.76
   5 -14  -2   -7.50   22.55
   5 -14  -2   -2.49    9.73
  -5  14  -2   -5.86    7.64
  -5 -14   2    3.81    5.31
  -5 -14  -3    2.81    3.59
  -5 -14  -3  -16.68   14.74
  -5 -14  -3  -41.90   32.75
  -5 -14  -3   12.10    3.51
   5 -14   3   -3.35   11.04
   5 -14   3    5.55    2.54
   5  14  -3   -2.60   11.43
  -5 -14  -3    3.98    4.75
   5  14  -3    1.11    3.68
   5 -14  -3    3.00    4.35
  -5 -14   3    8.14    7.57
   5 -14  -3  -35.39   20.29
  -5 -14   3   10.26    4.87
  -5  14  -3    0.00    7.79
   5 -14  -3    8.12   11.75
  -5 -14   3   -2.69    2.18
  -5 -14  -4   10.72    5.74
   5  14  -4    1.25    3.20
  -5 -14  -4    2.20    5.25
   5 -14   4   13.27   14.51
  -5 -14  -4   13.22   18.09
  -5 -14  -4   -2.31    3.00
   5 -14   4    5.49    2.54
   5  14  -4  -16.27   11.61
  -5 -14  -4   60.86   43.37
  -5  14  -4    7.04    2.34
  -5 -14   4    4.77    3.59
   5 -14  -4   16.34   24.16
   5 -14  -4   -1.71   11.20
  -5 -14   4    3.54    2.30
   5  14   4    4.52    6.22
  -5 -14   4   11.21   12.71
  -5  14  -4   -9.53    8.27
  -5 -14  -5   14.68    6.05
  -5 -14  -5    5.34    3.93
  -5 -14  -5   42.52   43.16
   5 -14   5  -13.33   15.91
   5  14  -5    2.94    3.49
   5 -14   5    7.94    3.09
  -5 -14  -5    3.67    5.03
   5  14  -5   -7.25   12.61
  -5 -14  -5    6.18   16.88
  -5  14  -5    1.53    9.93
   5  14   5    3.68    5.60
  -5  14  -5    6.31    3.29
  -5 -14   5   13.66    7.84
  -5 -14   5    3.55    3.54
  -5 -14   5   12.83   14.59
   5 -14  -5    6.30   13.27
   5 -14  -5   -8.74   21.40
  -5 -14  -6   21.24   46.87
  -5 -14  -6   44.59   24.80
   5  14  -6    0.41    3.06
  -5 -14  -6   -3.14    2.53
  -5 -14  -6   10.47    9.30
  -5 -14  -6   -1.36    5.66
   5  14  -6  -17.96   14.01
   5 -14  -6   -1.37    2.74
  -5  14  -6    6.04   12.51
  -5 -14   6  -19.51   16.61
  -5 -14   6    6.51    3.84
   5 -14  -6   -7.15   24.70
  -5  14  -6    0.86    2.93
   5  14  -7   12.69   19.49
  -5 -14  -7   31.31   31.20
  -5 -14  -7   16.19    9.30
   5  14  -7   -0.19    3.35
  -5 -14  -7   41.93   46.78
  -5 -14  -7    1.79    4.32
   5 -14   7  -17.96   24.29
  -5 -14   7   41.93   20.12
   5 -14  -7   21.70   18.28
  -5  14  -7    5.27    3.77
   5 -14  -7    6.23    5.03
   5 -14  -7    2.37   29.26
  -5  14  -7   -4.39   15.81
  -5 -14  -8   35.54   50.94
   5  14  -8  -15.40   20.75
  -5 -14  -8   15.96   28.38
  -5 -14  -8    6.79    4.88
   5 -14   8   15.00   32.85
  -5 -14  -8    2.73    8.25
   5  14  -8   -1.03    3.22
  -5  14  -8   -0.37    3.27
   5 -14  -8   31.49   27.37
   5 -14  -8    5.22   20.31
   5 -14  -8    1.77    3.97
  -5 -14   8   21.73   33.21
  -5  14  -8    4.20   18.69
  -5 -14  -9   14.94    6.98
   5  14  -9   -1.63    3.47
  -5 -14  -9  -28.36   35.76
   5 -14   9  -15.89   38.12
  -5 -14  -9  -23.49   53.84
   5  14  -9   52.11   50.58
  -5 -14  -9    9.82    8.55
   5 -14  -9    7.25    4.72
   5 -14  -9  -14.59   23.98
  -5  14  -9   -6.15   23.15
  -5  14  -9    4.09    4.22
  -5 -14   9    2.86   38.82
   5 -14  -9    6.49   33.50
  -6  14   0   87.98   21.87
   6 -14   0  139.14   23.40
  -6 -14   0  145.71   25.86
   6  14   0   98.62   21.31
  -6 -14   0  146.46   17.44
   6 -14   0  130.18   18.21
   6  14   0  114.55   27.50
   6 -14   0  157.23   22.42
  -6 -14  -1  162.10   28.81
   6  14  -1   72.07   21.92
   6  14  -1   84.63   17.01
   6 -14   1   87.16   19.79
  -6 -14  -1   88.31   13.49
   6 -14   1  122.18   14.25
   6 -14   1  111.27   20.82
   6 -14  -1   82.75   31.30
  -6 -14   1   99.63   13.52
   6 -14  -1  109.34   19.70
  -6 -14   1   91.94   20.17
   6  14   1   78.91   24.00
   6 -14  -1  130.90   17.96
  -6  14  -1   76.34   18.18
   6 -14  -1   92.82   16.90
   6 -14   2  265.66   30.13
   6 -14   2  218.62   37.87
   6  14  -2  193.77   40.85
   6  14  -2  207.65   30.94
  -6 -14  -2  228.81   35.24
  -6 -14  -2  254.31   30.37
  -6  14  -2  202.20   34.91
   6 -14  -2  199.01   35.02
   6 -14  -2  234.74   32.72
  -6 -14   2  245.15   29.93
   6 -14  -2  192.22   46.66
  -6 -14   2  233.39   34.81
  -6 -14  -3  142.19   21.91
  -6 -14  -3  148.04   29.36
   6  14  -3  143.23   32.12
  -6 -14  -3  172.27   22.17
   6 -14   3  166.33   21.13
   6  14  -3  161.71   22.29
  -6 -14  -3  130.24   49.93
  -6  14  -3  108.65   26.56
   6 -14  -3  182.56   23.55
   6 -14  -3  151.37   28.88
  -6 -14   3  178.10   21.32
   6 -14  -3  141.50   37.50
  -6 -14   3  169.16   31.42
   6 -14   4  126.59   17.08
  -6 -14  -4  145.57   29.37
  -6 -14  -4   82.37   48.64
   6  14  -4  106.90   17.65
  -6 -14  -4   94.25   29.44
  -6 -14  -4  167.60   19.54
  -6 -14  -4  122.54   18.10
   6  14  -4  111.04   27.27
  -6 -14   4  186.28   30.31
  -6  14  -4   91.85   23.88
   6 -14  -4  125.45   34.14
  -6 -14   4  131.90   31.30
  -6 -14   4  129.62   17.26
  -6 -14  -5   27.56   24.40
   6  14  -5   50.60   17.84
   6  14  -5   32.02    8.36
  -6 -14  -5  113.56   45.64
   6 -14   5   62.65    9.40
  -6 -14  -5   36.54    8.78
  -6 -14  -5   58.25   16.73
  -6 -14  -5   48.66   12.34
  -6 -14   5   52.49   14.96
   6 -14  -5   27.77   24.13
  -6 -14   5   17.65   19.26
  -6 -14   5   54.96    9.32
  -6  14  -5    4.97   14.13
  -6 -14  -6   84.51   47.27
  -6 -14  -6  105.87   20.07
  -6 -14  -6   64.33   30.84
   6  14  -6   54.08   23.45
  -6 -14  -6   87.52   12.53
   6  14  -6   82.93   14.06
  -6 -14  -6   84.50   20.50
   6 -14  -6   76.21   36.21
   6 -14  -6   84.17   29.83
  -6 -14   6   80.61   18.01
  -6 -14   6   67.69   27.98
  -6  14  -6   77.57   21.04
   6 -14  -6   75.11   14.79
  -6  14  -6   64.14   12.24
  -6 -14   6   81.78   12.09
  -6 -14  -7   47.30   14.93
  -6 -14  -7   25.47   48.60
  -6 -14  -7   -4.92   28.88
  -6 -14  -7   48.44    9.57
   6 -14   7    9.48   35.35
   6  14  -7   55.00   25.17
   6  14  -7   34.53    8.37
  -6 -14   7   -4.75   22.48
  -6  14  -7   14.40   17.42
  -6 -14   7   42.75    9.09
  -6  14  -7   39.60    8.10
  -6 -14   7   34.53   11.65
   6 -14  -7   33.45    9.24
   6 -14  -7   53.01   32.94
   6 -14  -7   55.40   24.55
   6 -14   8   56.79   40.92
  -6 -14  -8   46.82   54.28
  -6 -14  -8   58.82   17.78
   6  14  -8   39.93   25.50
   6  14  -8   51.57   11.06
  -6 -14  -8   48.27   11.07
  -6 -14  -8  -30.23   40.18
  -6 -14   8   72.05   16.73
   6 -14  -8   56.97   36.40
  -6  14  -8   35.90   23.20
  -6  14  -8   61.12   10.83
   6 -14  -8   61.12   12.33
   6 -14  -8   10.93   23.98
  -6 -14   8  -42.46   33.91
   7 -14   0    1.09    3.31
   7 -14   0    4.80    5.16
   7 -14   0   -9.24    8.63
  -7 -14   0   -2.24    9.42
  -7 -14   0    5.79    2.57
   7  14   0    3.06    3.84
   7  14   0    0.32   14.37
  -7 -14   0    1.67    5.12
  -7 -14  -1    0.81    2.59
   7 -14   1    7.93    4.70
   7  14  -1    3.12    4.23
   7 -14   1    9.02    3.06
   7  14  -1   15.51   15.06
  -7 -14  -1    5.37    5.19
  -7 -14  -1   10.57    2.57
   7 -14   1   -5.08   10.29
  -7 -14  -1   -6.09   11.88
  -7 -14   1    4.29   11.35
   7  14   1   16.36   15.40
  -7  14  -1  -11.82    9.33
   7 -14  -1    4.33    5.93
  -7 -14   1    7.46    3.03
   7 -14  -1    0.73    8.85
   7 -14  -1    0.49    3.65
   7 -14  -1   12.40   20.80
  -7 -14   1    8.19    5.87
   7 -14   2   -0.74    5.21
   7 -14   2  -14.26   12.72
   7  14  -2    0.25    3.48
  -7 -14  -2    2.45    3.24
   7  14  -2   13.55   16.11
  -7 -14  -2   -8.81   13.74
  -7 -14  -2    7.90    2.37
   7 -14   2    6.14    2.52
  -7 -14  -2    6.10    6.13
   7 -14  -2  -14.46   19.33
   7 -14  -2    1.73    4.29
  -7 -14   2    3.98   12.97
  -7  14  -2  -14.55    9.02
   7 -14  -2   -3.87    2.93
  -7 -14   2   -0.71    2.14
  -7 -14   2   12.46    9.28
   7  14   2    4.15    2.95
   7 -14  -2   -0.24    9.20
   7  14  -3    7.97   16.90
   7  14  -3    1.31    4.13
  -7 -14  -3   13.70    8.35
   7 -14   3   14.13    3.06
   7 -14   3    5.00   13.96
  -7 -14  -3    8.26    3.30
  -7 -14  -3   20.09   20.45
  -7 -14  -3    4.03    3.42
  -7 -14  -3  -21.32   47.07
   7 -14  -3  -12.71   11.66
  -7 -14   3    3.84    3.16
  -7 -14   3    6.83    5.37
   7 -14  -3   -1.36    4.57
  -7 -14   3   11.13   12.32
   7 -14  -3   -0.68   19.13
  -7  14  -3   17.80   11.54
  -7 -14  -4    2.39    2.94
   7 -14   4    4.04    2.73
  -7 -14  -4   17.49    8.14
   7  14  -4   -0.34    2.92
  -7 -14  -4    4.73    3.51
  -7 -14  -4   -0.28   44.46
   7  14  -4    8.51   18.18
  -7 -14   4    0.57    2.91
   7 -14  -4   21.80   14.16
  -7  14  -4  -10.38   10.74
  -7 -14   4   -3.63   18.90
  -7 -14   4    9.25    6.48
   7 -14  -4   -0.19   19.70
   7 -14   5    2.07    2.57
   7  14  -5    2.87    4.01
  -7 -14  -5  -14.89   44.74
  -7 -14  -5  -23.89   42.00
  -7 -14  -5    5.46    4.39
   7  14  -5    8.64   17.21
  -7 -14  -5   11.76    6.37
  -7 -14  -5    8.41    4.20
   7 -14  -5    4.22   21.52
  -7 -14   5    0.47   15.78
  -7  14  -5   -9.28   12.75
  -7 -14   5    5.59    3.28
  -7 -14   5   16.25    8.56
   7 -14  -5   -1.41   16.44
  -7 -14  -6    3.39   35.70
  -7 -14  -6  -65.31   48.59
  -7 -14  -6    2.87    6.34
  -7 -14  -6    1.97    5.25
   7  14  -6  -22.40   18.38
   7  14  -6    8.63    4.86
  -7 -14  -6    9.01    4.38
   7 -14   6   -6.08   27.13
   7 -14  -6  -22.84   21.98
  -7 -14   6   -0.22    3.49
  -7  14  -6   -5.90   14.75
   7 -14  -6  -10.17   18.37
   7 -14  -6   -1.15    2.68
  -7 -14   6    9.20    5.90
  -7 -14  -7    0.87    6.42
   7  14  -7   -3.50    3.09
   7 -14   7   15.51   31.03
  -7 -14  -7   13.71    9.55
  -7 -14  -7   -1.45   52.00
  -7 -14  -7    8.56   35.21
  -7 -14  -7    0.93    3.63
   7  14  -7  -11.64   19.56
   7 -14  -7  -16.38   21.47
  -7 -14   7   12.27   28.53
   7 -14  -7   -2.82   27.07
  -7  14  -7   11.96   18.84
  -7 -14   7    1.44    4.20
   7 -14  -7    1.65    3.78
  -7 -14   7   11.79    6.87
  -8 -14   0  149.57   17.81
  -8 -14   0  134.03   18.19
  -8 -14   0  136.61   26.76
   8  14   0  113.40   22.89
   8 -14   0  125.81   25.61
   8 -14   0  133.95   18.87
  -8 -14   0  154.58   31.43
   8  14  -1   32.39   22.24
  -8 -14  -1   98.06   12.42
  -8 -14  -1   86.81   12.83
  -8 -14  -1   64.20   23.26
  -8 -14  -1  110.72   26.19
   8  14  -1   81.75   17.04
   8 -14   1  103.47   13.13
  -8 -14   1   82.95   22.85
   8 -14  -1  114.16   22.95
  -8 -14   1  101.77   12.49
  -8 -14   1   80.30   20.19
   8 -14  -1   98.36   16.32
   8  14   1   72.15   17.65
  -8 -14  -2  107.87   25.30
   8 -14   2   98.19   22.54
   8  14  -2  117.08   18.95
   8  14  -2  114.26   28.11
   8 -14   2  116.64   14.32
  -8 -14  -2  114.90   13.89
  -8 -14  -2   63.69   52.38
  -8 -14  -2   50.36   23.14
   8  14   2   75.33   18.40
  -8 -14   2  119.72   23.52
   8 -14  -2   97.21   17.94
  -8  14  -2   60.28   18.59
   8 -14  -2   98.04   18.35
  -8 -14   2  117.34   26.86
  -8 -14   2  108.58   13.95
   8 -14  -2  114.15   22.79
  -8 -14  -3   34.43   53.32
  -8 -14  -3   30.78   24.90
  -8 -14  -3   41.93    7.97
   8 -14   3   55.80    7.43
  -8 -14  -3   48.13    7.01
   8  14  -3   43.84   23.44
   8  14  -3   54.89   11.16
   8 -14   3    7.37   19.18
  -8 -14  -3   48.54   16.01
   8 -14  -3   32.32   13.61
  -8 -14   3   58.24   17.05
  -8 -14   3   14.79   15.66
  -8  14  -3   25.62   14.13
   8 -14  -3   36.93   17.21
  -8 -14   3   43.94    7.63
   8 -14  -3   50.49   12.61
   8 -14   4   27.31   22.39
  -8 -14  -4  -96.22   51.78
  -8 -14  -4   54.80   33.96
   8  14  -4   65.19   11.23
  -8 -14  -4   37.11    7.65
   8  14  -4   47.74   25.01
  -8 -14  -4   73.33   20.46
  -8  14  -4   45.43   16.30
  -8 -14   4   13.11   18.68
   8 -14  -4   52.33   21.41
  -8 -14   4   71.50   17.01
   8 -14  -4   30.99   16.42
   8 -14   5   11.86   25.95
   8  14  -5   43.06    9.53
   8 -14   5   39.63    8.26
  -8 -14  -5   46.51    8.00
  -8 -14  -5   58.73    9.10
  -8 -14  -5   28.61   14.24
  -8 -14  -5  110.61   56.48
  -8 -14  -5   16.00   34.33
   8  14  -5   20.21   25.09
  -8  14  -5    7.63   15.33
  -8 -14   5  -18.16   22.71
   8 -14  -5   22.01   18.90
  -8 -14   5   35.59    7.41
  -8 -14   5   48.62   14.80
   8 -14  -5    6.60   20.34
  -8 -14  -6  -26.06   32.59
  -8 -14  -6   73.38   20.66
   8 -14   6   61.95   39.75
   8  14  -6   21.59   24.34
  -8 -14  -6  -36.52   56.45
   8 -14  -6   24.62   25.03
  -8 -14   6   69.01   18.12
   8 -14  -6   24.53   22.23
  -8  14  -6   11.03   17.43
  -8 -14   6  -22.43   27.98
  -9 -14   0    5.97    7.87
   9 -14   0    6.55    3.67
   9  14   0   12.48    5.60
  -9 -14   0  -10.79   13.87
  -9 -14  -1  -11.00   13.98
   9 -14   1   12.00    3.24
  -9 -14  -1   10.42    6.79
   9  14  -1  -13.31   22.02
   9  14  -1    3.53    4.76
   9 -14  -1    3.62    4.12
   9 -14  -1    0.29    6.41
  -9 -14   1    4.14   15.14
  -9 -14   1   15.41    9.52
   9  14   1   10.55    4.58
  -9 -14  -2    9.21    8.78
  -9 -14  -2  -16.48   54.56
   9  14  -2   -2.37    2.37
  -9 -14  -2   -6.64   17.71
   9  14  -2  -11.68   20.84
   9 -14   2   -0.08    2.39
   9 -14  -2    1.90    4.14
  -9 -14   2    4.65    7.63
  -9 -14   2    2.69   15.82
   9  14   2    2.79    4.35
   9 -14  -2    2.15    5.22
   9  14  -3   10.86    5.26
  -9 -14  -3   10.10   19.27
  -9 -14  -3   -0.33    0.56
  -9 -14  -3  -15.99   56.55
   9  14  -3  -20.20   22.15
  -9 -14  -3   -6.38    6.15
   9 -14   3   10.67    3.06
  -9 -14  -3   -3.15    0.99
   9 -14  -3    2.55    5.44
  -9  14  -3    1.64   11.28
  -9 -14   3   14.14    6.57
  -9 -14   3   -6.24   19.24
   9 -14   4    2.70    2.99
  -9 -14  -4   -0.97   26.96
   9  14  -4   19.87   27.07
  -9 -14  -4   15.02    8.12
   9 -14   4    4.90   27.49
   9  14  -4    1.47    4.36
  -9 -14  -4   55.70   55.65
   9 -14  -4    1.86    4.02
  -9  14  -4    9.10   13.88
  -9 -14   4   38.50   22.45
  -9 -14  -5   10.50    9.65
  -9 -14  -5   -3.85   37.17
   9  14  -5   16.29   29.26
   9 -14  -5    1.67   17.31
  -9  14  -5   12.48   17.93
   9 -14  -5  -24.80   17.37
  -9 -14   5    8.13    5.77
   9 -14  -5    1.32    3.29
  -9 -14   5   44.47   28.07
  10 -14   0   79.53   10.64
 -10 -14   0   58.65   17.48
  10  14   0   51.40   14.75
 -10 -14   0   66.66   22.68
 -10 -14  -1  -41.10   64.37
 -10 -14  -1   15.07   18.63
  10  14  -1   10.02    7.24
  10 -14   1   26.37    5.24
 -10 -14  -1   52.20   18.16
  10  14  -1   14.06   26.45
  10  14   1    8.53    7.86
 -10 -14   1   12.88   18.40
 -10 -14   1   45.02   15.87
  10 -14  -1   21.89    6.43
  10  14  -2    0.16   30.06
  10  14  -2   43.51   10.50
 -10 -14  -2   24.24   19.27
 -10 -14  -2   69.71   20.08
 -10 -14   2   17.10   20.63
  10 -14  -2   21.38   10.23
 -10 -14   2   46.34   14.47
  10 -14  -2   27.80    8.00
  10  14   2    8.94    7.34
  10  14  -3   74.29   31.98
 -10 -14  -3   30.80   23.61
 -10 -14  -3   16.94   13.06
  10  14  -3   28.99    8.75
  10 -14   3   36.07    6.34
  10 -14  -3   34.83   10.19
 -10 -14   3   13.95   12.16
  10 -14  -3   13.63    7.41
 -10 -14   3  -43.46   20.80
   0 -15   0    9.67    8.92
   0  15   0   12.84   17.03
   0 -15   0    8.50    3.73
   0  15  -1    1.80    3.11
   0 -15  -1   -2.41    7.88
   0 -15   1  -24.83    9.19
   0 -15  -1    0.85    2.71
   0 -15   1    1.93    2.25
   0  15  -1   -0.62   10.79
   0  15   1   -5.59    7.18
   0  15   1    7.42    3.44
   0  15  -2   -0.37   15.53
   0 -15   2   -3.75    6.34
   0  15   2   23.03   14.34
   0  15  -2   -2.77    2.27
   0 -15  -2   -2.73    3.12
   0 -15  -2   19.00   12.07
   0 -15   2    0.52    1.88
   0 -15  -3    0.78    5.22
   0  15  -3   13.22   12.50
   0 -15  -3    5.68   11.22
   0 -15   3    5.49   18.89
   0 -15   3    2.14    2.25
   0  15  -3   -1.43    2.48
   0 -15  -3    1.05    2.81
   0  15  -4   10.93   11.21
   0 -15  -4   19.77   30.39
   0 -15  -4    3.22    4.01
   0 -15  -4   -4.15   13.01
   0 -15   4    1.20    2.17
   0  15  -4    0.75    3.42
   0 -15  -4   -1.97    5.83
   0 -15   4   -3.08    9.78
   0 -15  -5    3.95    3.45
   0  15  -5    1.46    3.83
   0 -15  -5   -3.67   29.13
   0 -15   5    4.02    3.08
   0  15  -5   -5.73    9.39
   0 -15  -5   -3.70    5.25
   0 -15  -5  -21.60   13.86
   0 -15   5   12.38   14.01
   0  15  -6   -2.70    2.90
   0 -15  -6    4.44    4.22
   0 -15   6    1.81    2.87
   0 -15   6   -2.96   16.21
   0 -15  -6   -3.26    3.70
   0 -15  -6  -22.12   18.35
   0  15  -6   -5.74   21.22
   0 -15  -6   21.53   54.35
   0 -15  -6    3.59    4.42
   0 -15  -7    3.67   17.24
   0 -15   7   28.83   36.34
   0 -15  -7  -41.86   54.23
   0  15  -7    2.99    4.05
   0 -15  -7    6.60    4.63
   0 -15  -7   -0.44    3.85
   0  15  -7    3.96   14.62
   0 -15   8   35.48   37.53
   0 -15  -8  -22.93   36.74
   0 -15  -8    5.52    4.54
   0 -15  -8    4.80    4.61
   0 -15  -8   -8.32   21.13
   0  15  -8   -5.03   17.10
   0  15  -8    5.91    4.77
   0 -15   9  -48.79   32.35
   0 -15  -9   20.31   25.03
   0 -15  -9    5.69    5.65
   0  15  -9   11.94   20.09
   0  15  -9    1.33    4.17
   0 -15  -9   47.75   55.44
   0 -15  10  -22.59   35.67
   0 -15 -10  -76.89   39.12
   0  15 -10  -13.35   24.88
   0  15 -10   -0.02    3.62
   0 -15 -10    8.39    6.24
   1  15   0   86.78   21.31
  -1  15   0   68.20   14.91
  -1 -15   0  109.95   21.57
   1 -15   0   88.37   13.02
  -1 -15   0   94.74   12.88
  -1  15   0   70.58   19.53
   1  15   0   78.60   15.41
   1 -15   0   96.18   19.99
   1  15  -1  323.23   45.43
  -1  15   1  293.51   44.64
  -1 -15  -1  351.06   46.63
   1 -15   1  257.70   42.90
  -1 -15  -1  344.98   40.02
   1  15  -1  261.27   39.26
   1 -15   1  339.12   38.97
  -1  15  -1  291.82   43.96
  -1 -15   1  329.93   38.74
  -1 -15   1  272.88   43.35
   1 -15  -1  298.40   39.82
   1 -15  -1  282.12   44.19
   1  15   1  240.13   44.08
   1 -15   2   62.99   16.19
   1  15  -2   36.66   14.23
   1 -15   2   63.88    9.94
  -1 -15  -2  101.20   17.10
  -1 -15  -2   74.78   14.55
  -1  15   2   51.40   16.71
   1  15  -2   71.18   12.97
  -1 -15  -2   55.98   18.12
  -1  15  -2   54.07   11.79
   1  15   2   71.48   26.54
  -1 -15   2   77.44   10.02
   1 -15  -2   54.47   18.02
  -1 -15   2  107.73   26.20
   1 -15  -2   90.69   16.77
   1 -15   3  369.13   41.53
   1  15  -3  290.80   47.04
  -1 -15  -3  356.08   52.05
  -1 -15  -3  314.68   43.29
  -1 -15  -3  334.71   44.55
   1  15  -3  341.04   42.16
   1 -15  -3  336.58   50.10
  -1  15  -3  283.78   41.80
  -1 -15   3  347.02   41.38
   1 -15  -3  283.42   43.80
  -1  15  -3  312.32   46.71
   1 -15  -3  295.25   66.48
  -1 -15  -4  155.30   22.03
   1 -15   4  162.18   19.76
  -1 -15  -4  190.64   36.48
   1  15  -4  133.86   19.97
   1 -15   4  134.91   27.28
   1  15  -4  121.11   26.73
  -1 -15  -4  202.28   31.04
  -1 -15  -4  194.84   72.38
   1 -15  -4  186.84   29.47
  -1  15  -4  115.37   24.48
   1 -15  -4  143.88   20.66
   1 -15  -4  118.34   28.86
  -1  15  -4  126.79   19.94
   1 -15  -4  195.57   54.18
  -1 -15   4  154.92   19.69
  -1 -15  -5  294.74   52.90
  -1 -15  -5  321.96   44.58
   1 -15   5  313.28   39.74
  -1 -15  -5  313.82   41.77
   1 -15   5  457.36   66.03
  -1 -15  -5  302.81   73.73
   1  15  -5  273.84   39.77
   1  15  -5  282.54   46.89
   1 -15  -5  371.30   52.57
   1 -15  -5  280.06   61.98
  -1  15  -5  315.03   40.12
  -1 -15   5  283.98   51.51
   1 -15  -5  243.10   42.27
  -1 -15   5  330.31   39.85
   1 -15  -5  343.18   40.84
   1 -15   6   38.42   25.19
  -1 -15  -6   99.79   18.67
   1  15  -6  107.58   24.76
  -1 -15  -6   43.28   23.51
  -1 -15  -6  105.54   18.13
   1  15  -6  124.77   17.32
   1 -15   6  125.70   15.17
  -1 -15  -6   71.66   55.89
  -1 -15  -6   78.50   22.02
  -1 -15   6   99.15   13.92
  -1  15  -6   78.97   22.23
  -1 -15   6   79.10   25.29
  -1  15  -6   87.30   15.34
   1 -15  -6   93.51   14.07
   1 -15  -6   49.56   34.33
   1 -15  -6   50.97   21.83
  -1 -15  -7  143.20   70.78
  -1 -15  -7  151.47   24.42
   1  15  -7  191.27   23.89
   1  15  -7  216.51   38.58
  -1 -15  -7  193.51   25.75
   1 -15   7  103.68   36.63
  -1 -15  -7  179.87   40.57
   1 -15  -7  468.34   90.65
  -1  15  -7  176.53   23.67
  -1 -15   7  134.87   37.76
  -1  15  -7  163.64   35.13
   1 -15  -7  159.08   24.54
   1 -15  -7  152.57   38.46
  -1 -15  -8   82.23   31.51
   1 -15   8   70.32   50.87
  -1 -15  -8  107.65   18.09
   1  15  -8   84.57   28.04
   1  15  -8   98.83   15.84
  -1 -15  -8   79.56   16.38
  -1 -15  -8   92.66   55.11
  -1  15  -8   79.91   14.59
   1 -15  -8   94.46   17.46
   1 -15  -8   50.99   39.13
   1 -15  -8   21.25   24.73
  -1 -15   8   67.88   32.54
  -1  15  -8   90.01   28.64
   1  15  -9   17.98   22.28
   1  15  -9   99.22   15.38
  -1 -15  -9   74.88   15.35
  -1 -15  -9    5.14   26.46
   1 -15   9   36.95   35.79
  -1 -15  -9  -35.58   55.08
  -1  15  -9   93.22   28.01
   1 -15  -9  121.16   51.74
  -1 -15   9   77.35   36.47
  -1  15  -9   85.91   13.98
   1 -15  -9   84.59   16.49
   1 -15  -9   63.02   29.19
  -1 -15 -10  -10.35   27.49
   1  15 -10   26.61   27.29
   1  15 -10   25.88    7.48
  -1 -15 -10   10.64    7.14
  -1 -15 -10   21.43   50.23
   1 -15 -10    5.59    6.76
  -1 -15  10  -19.75   35.05
   1 -15 -10  108.30   57.62
  -1  15 -10   28.31   34.55
  -1  15 -10   20.01    6.32
   1 -15 -10    7.41   27.59
   2  15   0    2.64    3.45
   2 -15   0    6.25    3.35
   2 -15   0   -2.74    7.16
  -2  15   0   -5.85    7.26
  -2 -15   0    7.60    2.94
   2  15   0    5.66    9.52
  -2 -15   0    5.03    9.32
   2 -15   1    0.87    7.53
   2  15  -1    7.62   11.91
   2 -15   1    0.62    2.50
  -2  15   1   -2.59    7.96
  -2 -15  -1    6.51    3.44
  -2 -15  -1    3.36    4.09
   2  15  -1    1.08    3.23
  -2 -15  -1   -6.76    8.79
   2  15   1    8.71    9.65
  -2 -15   1    2.37    2.24
   2  15   1   -1.03    2.11
   2 -15  -1   -0.75    3.00
  -2 -15   1    1.87    7.84
  -2  15  -1    0.99    7.39
   2 -15  -1    9.78   11.85
  -2  15  -1    3.98    2.42
   2 -15   2    7.43    9.78
   2 -15   2    1.23    2.21
  -2 -15  -2    8.52    3.88
   2  15  -2   -0.23    3.18
  -2 -15  -2    3.72    4.04
  -2 -15  -2   14.32   13.84
   2  15  -2    5.69   10.12
  -2  15   2   -0.48    8.59
   2 -15  -2   -0.85    9.21
   2  15   2  -20.07    9.18
  -2 -15   2    4.22    2.85
   2  15   2   10.30    4.12
  -2  15  -2    2.58    3.32
  -2 -15   2    5.57    8.89
  -2  15  -2    0.76    8.33
   2 -15  -2   -1.37    3.90
  -2 -15  -3    1.95    3.59
   2  15  -3    0.12   10.16
   2 -15   3    3.11    2.13
   2  15  -3    0.22    2.97
   2 -15   3   -4.08    8.33
  -2 -15  -3   -2.46    3.99
  -2 -15  -3   -2.01   18.74
   2 -15  -3   -4.76    2.72
  -2  15  -3    2.57    3.37
  -2  15  -3   12.21   10.25
  -2 -15   3    0.85    8.75
   2 -15  -3  -29.56   28.48
  -2 -15   3    5.67    2.77
   2 -15  -3    4.53   10.84
  -2 -15  -4   -6.94   13.48
  -2 -15  -4    8.29    4.83
   2 -15   4    2.64    2.33
   2  15  -4    3.57    3.63
  -2 -15  -4    2.90    6.66
   2 -15   4    8.85   11.12
  -2 -15  -4    1.01   34.30
   2  15  -4   11.49   11.94
  -2  15  -4  -10.04    8.24
   2 -15  -4    1.95    2.94
   2 -15  -4    1.00   26.59
  -2  15  -4    5.58    4.31
  -2 -15   4    8.35   11.89
   2 -15  -4   -2.45    4.30
   2 -15  -4   13.50   14.10
  -2 -15   4    2.24    3.25
  -2 -15  -5   10.55    5.09
   2  15  -5   28.54   19.01
   2 -15   5    9.30    3.39
   2 -15   5    9.57   14.31
  -2 -15  -5  -21.53   33.33
  -2 -15  -5    7.53    7.94
  -2 -15  -5   25.52   34.78
   2 -15  -5    5.54    3.32
  -2 -15   5    5.55    3.19
   2 -15  -5  -21.86   13.02
   2 -15  -5  -11.98   27.92
  -2 -15   5   19.25   18.25
  -2  15  -5    0.76    3.12
  -2  15  -5   -7.22    9.40
   2  15  -6   -0.77    3.19
   2 -15   6   10.17   17.43
  -2 -15  -6    0.91    4.71
   2  15  -6    7.87   13.33
  -2 -15  -6    2.18    4.21
  -2 -15  -6   41.72   48.46
  -2 -15  -6   22.78   19.02
   2 -15  -6    5.51   16.47
   2 -15  -6    9.39   30.36
  -2  15  -6    0.23    3.86
  -2 -15   6   -2.40    2.86
  -2  15  -6    0.23   11.63
  -2 -15   6   20.82   18.48
  -2 -15  -7  -11.64   45.41
  -2 -15  -7   29.79   27.29
   2 -15   7   14.43   20.54
   2  15  -7    9.21   15.09
  -2 -15   7   12.17   18.95
   2 -15  -7   32.65   19.80
   2 -15  -7   30.99   31.51
  -2  15  -7   23.30   15.21
   2 -15   8   -3.81   25.28
  -2 -15  -8    6.88    4.71
  -2 -15  -8   -0.75   24.12
   2  15  -8   29.86   18.55
   2  15  -8    3.42    4.32
  -2 -15  -8   13.35    5.90
  -2 -15  -8  -34.10   38.18
  -2  15  -8    4.69   18.02
   2 -15  -8   11.14   19.24
  -2 -15   8    3.90   31.17
   2 -15  -8   61.48   39.21
  -2  15  -8   -2.18    3.56
   2 -15  -8    6.96    4.83
  -2 -15  -9   -0.84    6.20
   2  15  -9   28.34   26.80
  -2 -15  -9  -17.12   51.31
  -2 -15  -9   20.20   23.94
  -2 -15  -9   -3.38    3.72
   2  15  -9   -2.86    2.83
  -2  15  -9    0.66    3.91
   2 -15  -9   31.93   24.44
   2 -15  -9   13.82   38.24
  -2  15  -9  -13.34   20.01
   2 -15  -9    0.06    3.88
  -2 -15   9  -27.78   33.85
   2 -15  10    5.76   42.22
   2  15 -10    5.34    5.07
  -2 -15 -10    9.81    5.30
   2  15 -10   -9.76   30.22
  -2 -15 -10   -0.24   57.22
  -2 -15 -10   12.72   27.75
  -2  15 -10    9.07    5.32
   2 -15 -10    6.21    4.59
   2 -15 -10  -24.20   27.55
   2 -15 -10  -61.90   42.19
  -2  15 -10   13.99   29.44
  -2 -15  10   24.88   46.30
   3  15   0  180.24   33.08
   3  15   0  127.13   22.04
  -3 -15   0  142.39   23.66
  -3 -15   0  175.27   21.47
   3 -15   0  169.53   21.94
  -3 -15   0  184.23   32.92
   3 -15   0  166.33   28.65
   3  15  -1  305.42   42.79
   3 -15   1  344.50   42.10
  -3 -15  -1  339.82   45.01
  -3 -15  -1  285.26   48.73
   3  15  -1  321.54   48.95
  -3  15   1  329.89   47.42
   3 -15   1  386.10   47.03
  -3 -15  -1  379.63   42.78
  -3  15  -1  304.23   46.88
  -3 -15   1  343.16   48.55
   3  15   1  314.77   55.81
  -3 -15   1  328.61   41.65
   3 -15  -1  303.75   46.86
   3 -15  -1  289.54   42.81
   3 -15   2   59.16   17.01
  -3 -15  -2  140.43   37.80
   3 -15   2  101.86   13.92
  -3 -15  -2  117.51   21.35
   3  15  -2  101.50   24.04
  -3 -15  -2  116.83   15.68
   3  15  -2   99.73   15.11
  -3  15  -2  100.04   22.77
   3 -15  -2  104.94   22.33
   3  15   2   69.31   22.12
  -3 -15   2  105.33   13.79
   3 -15  -2  135.55   21.16
  -3 -15   2  230.03   40.82
  -3  15  -2   70.93   15.06
   3  15  -3  243.42   35.62
  -3 -15  -3  306.00   37.92
  -3 -15  -3  237.88   45.68
  -3 -15  -3  252.81   38.01
   3  15  -3  291.79   42.82
   3 -15   3  282.49   35.02
   3 -15   3  290.67   42.42
  -3 -15   3  295.04   35.12
  -3 -15   3  277.60   44.12
   3 -15  -3  234.31   60.19
   3 -15  -3  329.40   44.54
  -3  15  -3  206.33   41.55
  -3 -15  -4  113.59   20.12
  -3 -15  -4   85.28   17.47
  -3 -15  -4   59.23   26.27
   3 -15   4   85.33   10.68
   3  15  -4   83.84   11.56
  -3 -15  -4   42.84   38.68
   3  15  -4   75.86   21.93
   3 -15   4   34.36   16.60
  -3 -15   4   35.43   16.33
   3 -15  -4    7.04   29.03
  -3  15  -4   62.64   12.41
   3 -15  -4   57.91   19.69
  -3  15  -4   40.51   15.48
  -3 -15   4   85.17   10.81
   3 -15   5  218.27   26.07
   3  15  -5  173.83   26.09
  -3 -15  -5  204.26   29.84
   3 -15   5  167.82   36.30
  -3 -15  -5  211.41   30.66
   3  15  -5  161.32   35.24
  -3 -15  -5  148.86   26.63
  -3 -15  -5  255.37   83.52
  -3 -15  -5  358.97   64.86
  -3 -15   5  205.27   26.01
  -3 -15   5  359.13   52.94
   3 -15  -5  213.43   40.38
  -3  15  -5  263.19   38.87
   3 -15  -5  171.98   46.72
  -3  15  -5  197.99   26.36
  -3 -15  -6  137.96   25.94
  -3 -15  -6  145.34   36.66
  -3 -15  -6  151.93   19.88
  -3 -15  -6  169.31   69.62
   3  15  -6  114.03   26.13
   3  15  -6  121.96   18.26
   3 -15   6  111.38   32.36
   3 -15  -6   92.66   29.52
   3 -15  -6  149.70   42.56
  -3  15  -6  118.51   18.16
  -3 -15   6  137.84   18.36
  -3  15  -6  165.09   30.49
  -3 -15   6  102.34   27.46
  -3 -15  -7  178.79   28.54
  -3 -15  -7   76.15   29.54
   3  15  -7  140.97   18.42
   3  15  -7   64.79   25.68
   3 -15   7   86.70   31.54
  -3 -15  -7  139.67   19.88
   3 -15  -7  123.38   47.14
  -3 -15   7   83.10   30.24
  -3  15  -7  137.20   30.49
  -3  15  -7  143.29   18.51
   3 -15  -7  134.35   19.50
   3 -15  -7   87.94   30.87
   3  15  -8   59.31   23.14
  -3 -15  -8   -3.50   25.56
   3  15  -8   49.54    9.61
  -3 -15  -8   21.20   11.63
  -3 -15  -8   44.12   10.30
  -3 -15  -8   32.33   43.29
  -3  15  -8   35.80   21.98
   3 -15  -8  -19.05   33.15
  -3 -15   8   30.76   29.62
   3 -15  -8   35.15    9.58
  -3  15  -8   37.87    8.56
  -3 -15  -9   52.02   14.59
   3 -15   9    8.45   33.88
  -3 -15  -9   52.53   11.88
  -3 -15  -9   33.03   50.84
  -3 -15  -9  -16.58   32.70
   3  15  -9   16.24   25.60
   3  15  -9   57.44   10.73
  -3 -15   9   88.37   43.31
  -3  15  -9   36.72   23.76
   3 -15  -9   50.72   11.67
  -3  15  -9   40.46    9.42
   3 -15  -9   33.97   25.44
   3 -15  -9    4.27   38.49
  -4 -15   0    3.47   10.20
   4 -15   0    0.67    7.38
   4  15   0   -5.34    2.80
   4  15   0   -9.71   10.48
  -4  15   0  -10.59    8.02
  -4 -15   0    1.11    3.16
  -4 -15   0   -1.64    4.17
   4 -15   0    3.19    3.52
  -4  15   1   -2.37    8.85
  -4 -15  -1    4.13    4.68
   4 -15   1    1.85    7.72
  -4 -15  -1   -0.31   14.68
   4  15  -1  -14.55   10.73
  -4 -15  -1    6.61    3.44
   4  15  -1   -0.69    3.32
   4 -15   1   11.00    3.26
   4 -15  -1    6.42    9.01
  -4  15  -1   -4.96    8.22
  -4 -15   1   -4.77    9.22
   4  15   1    5.53    4.42
   4  15   1  -16.33   11.19
  -4 -15   1    1.58    4.25
   4 -15  -1    1.91    4.58
  -4 -15   1    5.09    2.74
   4  15  -2    1.45   11.41
   4 -15   2   10.48    3.40
   4 -15   2    0.90    8.28
   4  15  -2   -1.96    3.83
  -4 -15  -2   -5.72   10.35
  -4 -15  -2    4.37    5.27
  -4 -15  -2   12.70    4.27
  -4 -15   2    1.74    2.49
   4  15   2   -3.07   10.95
   4 -15  -2   -2.34    3.72
  -4  15  -2    0.93    8.30
   4 -15  -2   25.06   25.92
   4 -15  -2   -3.94    9.56
  -4 -15   2   -1.25    8.32
   4  15   2    0.76    2.34
  -4 -15   2    1.87    4.49
   4 -15   3    6.03   10.43
   4  15  -3   -1.72   10.47
  -4 -15  -3    6.03   13.42
   4  15  -3   -0.76    3.03
  -4 -15  -3    4.48    5.20
   4 -15   3    6.86    2.26
  -4 -15  -3    6.41    4.25
  -4 -15  -3  -17.71   35.87
  -4 -15   3    9.42    2.80
  -4 -15   3    2.88    6.81
  -4  15  -3    4.20    2.56
  -4  15  -3    1.21    9.17
   4 -15  -3   -1.76    3.96
   4 -15  -3   51.53   29.46
   4 -15  -3  -21.28   10.22
  -4 -15  -4   10.31    4.26
  -4 -15  -4    5.84    5.39
  -4 -15  -4   -8.87   37.26
   4  15  -4    2.16    3.58
   4  15  -4  -10.39   10.00
   4 -15   4   10.45    2.82
  -4 -15  -4    3.32    3.88
  -4 -15  -4   18.27   18.94
   4 -15   4   -6.47   12.48
  -4 -15   4   -3.72   12.30
  -4 -15   4   -3.00    2.45
  -4  15  -4   -9.21    8.66
  -4  15  -4   -0.01    2.73
   4 -15  -4   13.36   13.02
   4 -15  -4   12.54   25.27
  -4 -15  -5   10.46    8.62
  -4 -15  -5   18.93   22.43
   4 -15   5   28.32   18.58
   4 -15   5   10.13    3.61
  -4 -15  -5    7.44   55.44
  -4 -15  -5    3.34    5.02
  -4 -15  -5    0.77    3.53
   4  15  -5   -1.54    2.99
   4  15  -5    5.40   13.96
  -4  15  -5   -7.26   10.90
   4 -15  -5   19.96   15.65
  -4 -15   5    7.26    3.85
   4 -15  -5   26.54   25.29
  -4 -15   5   -2.11   14.56
  -4 -15  -6    3.35    4.29
   4  15  -6   -2.78   13.87
  -4 -15  -6   -9.47   21.38
   4  15  -6   -3.13    2.75
  -4 -15  -6  -38.62   41.24
  -4 -15  -6    8.89    5.60
   4 -15   6  -12.90   19.25
  -4 -15   6   -5.16    2.73
   4 -15  -6   -1.04   14.79
   4 -15  -6   -0.01   26.16
  -4  15  -6    3.27   12.94
   4  15   6   -4.53    4.73
  -4  15  -6   -7.26    2.16
  -4 -15   6  -18.95   16.59
  -4 -15  -7   22.88   23.53
   4  15  -7   14.70   18.66
  -4 -15  -7    0.40    3.89
   4  15  -7   -0.39    3.22
  -4 -15  -7   47.72   43.33
  -4 -15  -7    6.49    5.44
   4 -15  -7   -1.02    3.42
  -4  15  -7    1.47    3.71
  -4  15  -7   -6.57   14.41
  -4 -15   7   12.03   18.92
   4 -15  -7   -3.08   30.89
  -4 -15  -8    2.62    3.89
  -4 -15  -8   25.69   31.20
   4  15  -8    3.92    3.71
   4  15  -8   17.89   20.67
   4 -15   8   -8.90   30.08
  -4 -15  -8   16.42    6.94
  -4 -15  -8  -48.33   77.38
  -4 -15   8   -0.08   34.19
   4 -15  -8   -8.70   33.86
  -4  15  -8   14.86   19.27
   4 -15  -8    4.79    4.62
   4 -15  -8   11.85   24.65
  -4  15  -8    2.03    3.94
   4  15  -9    0.26    3.49
  -4 -15  -9   12.05   64.63
   4  15  -9  -14.92   24.85
  -4 -15  -9  -31.03   30.73
  -4 -15  -9   12.07    5.98
   4 -15   9    3.54   36.35
  -4 -15  -9   -1.14    8.43
  -4  15  -9   10.62   23.14
   4 -15  -9    4.07    5.14
   4 -15  -9  -14.76   23.73
   4 -15  -9    6.79   32.39
  -4  15  -9   -1.60    3.93
  -4 -15   9   54.19   40.89
   5  15   0  114.84   26.30
  -5 -15   0  122.61   16.99
  -5  15   0  114.34   23.08
   5 -15   0  120.53   23.52
   5 -15   0  142.46   17.98
  -5 -15   0  104.24   25.76
   5  15   0  133.40   19.23
   5  15  -1  276.06   42.28
  -5 -15  -1  377.13   41.63
  -5 -15  -1  351.77   45.98
   5  15  -1  283.16   48.92
  -5 -15  -1  355.25   51.07
   5 -15   1  301.63   45.40
   5 -15   1  380.43   41.77
   5  15   1  274.27   51.77
   5 -15  -1  271.58   42.10
  -5 -15   1  329.79   45.65
   5 -15  -1  323.84   45.99
  -5 -15   1  321.39   40.97
   5  15  -2  135.84   19.25
  -5 -15  -2  163.05   18.98
  -5 -15  -2  152.37   28.74
   5  15  -2   77.55   24.92
   5 -15   2  124.35   26.41
   5 -15   2  166.33   18.24
  -5 -15  -2   87.36   25.89
   5  15   2   93.40   21.22
  -5 -15   2   78.44   25.00
   5 -15  -2  114.12   21.65
   5 -15  -2   78.98   34.89
  -5 -15   2  169.86   29.29
  -5 -15   2  138.48   17.78
   5 -15  -2  125.49   24.30
   5  15  -3  174.06   26.38
   5 -15   3  162.90   33.45
  -5 -15  -3  116.76   60.88
   5 -15   3  224.62   25.81
   5  15  -3  151.85   34.56
  -5 -15  -3  234.30   27.64
  -5 -15  -3  215.28   30.91
  -5 -15  -3  244.80   46.11
   5 -15  -3  156.80   33.05
   5 -15  -3  155.55   30.53
  -5  15  -3  192.12   35.22
  -5 -15   3  183.97   29.56
  -5 -15   3  215.81   25.82
   5 -15  -3  153.88   43.21
  -5 -15  -4   80.44   13.91
   5 -15   4   74.39   10.43
   5  15  -4   59.24   19.65
  -5 -15  -4   95.06   30.15
  -5 -15  -4  -52.56   46.45
  -5 -15  -4  111.81   18.25
   5  15  -4   78.49   12.99
   5 -15   4   40.95   19.44
  -5 -15  -4   70.59   17.70
  -5 -15   4   80.60   10.59
  -5 -15   4   82.84   20.34
  -5  15  -4   51.00   10.93
  -5 -15   4   48.93   20.20
   5 -15  -4   75.07   21.52
  -5  15  -4   38.89   14.76
   5 -15  -4   56.59   28.87
   5 -15   5  144.45   17.21
   5 -15   5   93.22   28.39
  -5 -15  -5  112.30   17.94
  -5 -15  -5  189.84   22.61
   5  15  -5  104.79   17.22
   5  15  -5  143.93   29.55
  -5 -15  -5  159.55   28.81
  -5 -15  -5   97.29   53.20
  -5 -15  -5   64.05   29.52
  -5 -15   5  138.68   32.88
  -5 -15   5  160.86   27.23
  -5  15  -5   91.71   16.66
  -5  15  -5  123.05   25.69
   5  15   5  145.54   35.91
   5 -15  -5   60.62   31.87
  -5 -15   5  148.03   17.53
  -5 -15  -6  -22.02   44.63
  -5 -15  -6   29.12   14.65
  -5 -15  -6   36.53   12.10
   5  15  -6   44.10    9.33
   5  15  -6   28.65   18.27
  -5 -15  -6   69.57   34.47
  -5 -15  -6   73.53   12.10
  -5  15  -6   20.11   15.55
  -5 -15   6   43.80    8.73
  -5  15  -6   32.16    7.86
  -5 -15   6    3.70   16.81
   5 -15  -6  -21.37   27.20
   5 -15  -6    2.59   22.93
  -5 -15  -7   39.64   10.04
  -5 -15  -7   67.00   37.30
  -5 -15  -7   16.17   44.34
  -5 -15  -7   76.36   17.44
   5  15  -7   45.33    9.73
   5  15  -7   20.77   19.40
   5 -15   7   59.90   31.17
  -5  15  -7   39.67    9.08
   5 -15  -7  -35.04   26.57
  -5 -15   7   48.31   27.28
   5 -15  -7   54.33   11.33
  -5  15  -7   10.07   17.99
   5 -15  -7   52.94   24.55
  -5 -15  -8   24.65   11.39
   5  15  -8    0.47   22.63
  -5 -15  -8   39.93   51.30
  -5 -15  -8  -26.77   26.91
   5 -15   8    1.03   35.49
   5 -15  -8   -7.76   35.74
  -5  15  -8   -8.37   19.00
   5 -15  -8   15.09   23.96
  -5 -15   8  -15.05   26.85
   5 -15  -8   31.32    8.39
   6  15   0   13.20   15.59
  -6 -15   0   -0.96   10.72
  -6 -15   0    1.69    3.56
   6 -15   0    6.05    3.54
   6  15   0    6.33    4.75
  -6 -15   0    3.48    2.26
  -6  15   0    4.63    9.20
   6  15  -1    1.57    3.82
   6  15  -1    3.03   13.61
  -6 -15  -1   12.84   13.59
   6 -15   1   15.11   10.34
  -6 -15  -1   -0.05    2.55
  -6 -15  -1   13.44    7.71
   6 -15   1   10.97    3.05
   6 -15  -1   -1.06    3.65
   6 -15  -1    0.62    9.82
  -6 -15   1    6.91    2.52
  -6  15  -1   -5.70    9.05
  -6 -15   1    1.49    4.21
   6 -15  -1  -14.34   26.52
   6  15   1    5.45    3.43
  -6 -15   1   -5.46    9.67
   6  15   1   -1.28   14.95
   6 -15  -1    4.87    4.66
   6  15  -2    0.45    3.34
   6  15  -2  -10.41   15.10
  -6 -15  -2   12.81    4.27
   6 -15   2    8.47    3.31
  -6 -15  -2    1.83   11.92
   6 -15   2    0.32   10.94
  -6 -15   2   -0.15   11.15
  -6 -15   2    3.36    2.83
  -6 -15   2    4.30    5.76
   6 -15  -2    6.96    5.76
   6 -15  -2   -0.30    3.90
   6  15   2   12.61    5.50
  -6  15  -2  -10.83   10.95
   6 -15  -2    8.95   25.60
   6 -15  -2   -1.87   11.06
   6  15  -3    4.16   14.67
  -6 -15  -3   -2.28   18.45
   6  15  -3    2.89    4.08
   6 -15   3    7.91    2.89
  -6 -15  -3   15.39    4.57
  -6 -15  -3   20.04    8.42
  -6 -15  -3    6.27    4.27
  -6 -15  -3   58.66   50.09
  -6 -15   3    5.63    4.87
   6 -15  -3    5.00   24.67
   6 -15  -3    0.41    4.38
  -6  15  -3    5.14   11.37
  -6 -15   3   -6.71    8.49
   6 -15  -3    9.42    4.70
  -6 -15   3    3.82    2.77
  -6 -15  -4    8.88    5.88
  -6 -15  -4    5.49    3.42
  -6 -15  -4   88.41   52.75
   6  15  -4  -11.48   15.11
   6  15  -4   -0.05    3.50
  -6 -15  -4   -2.40   22.29
   6 -15   4   10.57    3.13
  -6 -15  -4   13.50    4.09
  -6 -15   4    5.39    6.09
  -6  15  -4  -13.28   10.54
   6 -15  -4  -31.58   22.52
  -6 -15   4   -1.68   13.57
  -6 -15   4    5.93    3.54
  -6 -15  -5    3.41    7.15
  -6 -15  -5   11.61   22.00
   6  15  -5    6.26   16.74
   6 -15   5    9.45    2.97
  -6 -15  -5  -34.44   46.40
  -6 -15  -5   16.05    6.74
   6  15  -5    2.51    3.72
  -6 -15  -5   -1.35    2.74
  -6  15  -5    4.87   12.30
  -6 -15   5    8.52    6.02
  -6 -15   5    0.76    2.76
   6 -15  -5  -42.85   25.95
  -6 -15   5   -0.87   14.49
   6  15  -6   -3.52   18.11
   6  15  -6   -0.07    3.63
  -6 -15  -6   -2.93   23.82
  -6 -15  -6    7.16    8.44
  -6 -15  -6   16.37    5.21
   6 -15   6   16.35   26.79
  -6 -15  -6  -19.85   49.11
  -6 -15  -6   10.27    8.02
  -6  15  -6   -0.81   15.01
  -6 -15   6    6.83    4.41
  -6  15  -6    6.97    2.85
  -6 -15   6   13.40    7.26
   6 -15  -6   20.21   25.51
   6 -15  -6   15.10   17.77
  -6 -15  -7    4.53    3.57
   6  15  -7   -1.24    3.20
   6  15  -7   12.15   21.96
  -6 -15  -7  -36.13   27.29
  -6 -15  -7  -21.26   50.28
   6 -15   7  -21.88   28.81
  -6 -15  -7   12.41    6.89
  -6 -15   7  -16.61   21.94
   6 -15  -7   -2.44   26.79
   6 -15  -7    1.56   20.14
   6 -15  -7   -3.28    2.93
  -6  15  -7    4.74    4.09
  -6  15  -7   23.51   19.50
  -6 -15   7   13.36    7.16
  -6 -15  -8   10.95    7.39
   6  15  -8   30.12   24.92
   6 -15   8   18.30   44.03
  -6 -15  -8   31.01   48.20
   6  15  -8    2.08    3.85
  -6 -15  -8    7.43    4.28
  -6 -15  -8  -58.97   56.31
  -6  15  -8    0.82    3.64
  -6 -15   8   10.85    6.06
   6 -15  -8    5.24    3.80
   6 -15  -8  -41.78   29.26
  -6 -15   8   18.85   30.24
  -6  15  -8   33.94   24.74
   7  15   0   63.89   24.23
  -7 -15   0   99.82   11.79
   7  15   0   77.08   16.68
  -7 -15   0   91.01   21.77
   7 -15   0   97.23   20.64
  -7 -15   0   50.38   18.14
   7 -15   0   61.13   16.38
   7 -15   0   81.73   12.52
   7  15  -1  157.11   25.44
   7 -15   1  218.59   38.35
  -7 -15  -1  180.36   32.87
   7  15  -1  230.58   40.45
  -7 -15  -1  170.08   37.68
   7 -15   1  208.70   24.35
  -7 -15  -1  187.35   23.73
   7 -15   1  175.17   30.48
   7 -15  -1  120.20   37.70
   7 -15  -1  170.68   25.05
  -7 -15   1  185.37   29.46
   7  15   1  160.68   30.14
   7 -15  -1  177.13   27.90
  -7 -15   1  192.79   23.72
  -7  15  -1  154.80   30.16
   7  15   1  226.01   40.28
   7 -15  -1  184.34   28.70
   7 -15   2   70.62   22.39
   7  15  -2   76.20   17.01
  -7 -15  -2  114.53   24.25
   7 -15   2  138.02   15.03
  -7 -15  -2  118.03   28.79
  -7 -15  -2   94.90   15.26
  -7 -15  -2  129.31   14.93
   7  15  -2   66.46   27.25
   7 -15  -2  164.18   25.57
   7 -15  -2  101.80   18.70
   7 -15  -2   53.65   30.31
   7  15   2   79.43   19.25
  -7 -15   2   71.67   23.04
  -7  15  -2   73.27   20.17
   7 -15  -2   96.28   20.85
  -7 -15   2  115.25   14.65
  -7 -15   2  125.24   27.43
  -7 -15  -3  118.52   61.43
   7 -15   3  110.65   29.56
   7  15  -3  133.72   20.77
   7  15  -3  135.07   32.05
  -7 -15  -3  184.94   20.22
  -7 -15  -3  150.19   20.28
  -7 -15  -3  195.71   35.08
   7 -15   3  146.08   19.50
   7 -15  -3  128.75   21.56
  -7 -15   3  153.34   19.71
  -7  15  -3  128.88   28.13
  -7 -15   3  120.62   29.60
  -7 -15   3  139.03   28.69
   7 -15  -3  123.86   26.61
   7 -15  -3  155.84   36.61
  -7 -15  -4   32.08    7.37
   7  15  -4   33.42    7.91
   7 -15   4   40.23    7.39
  -7 -15  -4   37.68    8.74
  -7 -15  -4   61.00   55.45
  -7 -15  -4   30.52   13.56
   7  15  -4   15.40   19.97
  -7 -15   4   48.03   15.43
   7 -15  -4   36.41   16.79
  -7  15  -4   22.82   14.54
  -7 -15   4   15.15   23.31
   7 -15  -4   72.38   25.19
  -7 -15   4   31.56    6.94
  -7 -15  -5   41.96   31.92
   7  15  -5   43.55   10.80
  -7 -15  -5   69.68   11.57
  -7 -15  -5  114.76   55.18
   7  15  -5   86.45   28.86
  -7 -15  -5   76.08   14.02
   7 -15   5   58.58   10.83
  -7 -15  -5   58.90   16.48
   7 -15   5   16.02   23.73
   7 -15  -5   63.14   22.89
  -7 -15   5   59.33   16.89
   7 -15  -5   45.12   26.29
  -7 -15   5   72.42   11.24
  -7  15  -5   17.31   16.85
  -7 -15  -6   58.21   16.71
  -7 -15  -6   81.02   61.29
   7  15  -6   49.66   23.64
  -7 -15  -6   54.76   12.94
   7  15  -6   52.45   10.44
  -7 -15  -6   32.58    7.96
  -7 -15  -6  -26.87   33.71
   7 -15   6   36.80   33.04
  -7  15  -6   33.79   19.09
   7 -15  -6   33.81   29.43
  -7 -15   6   -6.87   20.55
  -7 -15   6   29.94    8.10
   7 -15  -6   60.41   23.43
  -7 -15   6   53.53   14.06
   7 -15  -6   38.46    9.00
  -7 -15  -7   87.74   21.85
  -7 -15  -7   11.49   33.88
   7  15  -7   56.59   11.05
  -7 -15  -7  173.52   68.31
  -7 -15  -7   47.05   10.23
   7  15  -7   26.69   23.76
  -7 -15   7   27.04   12.53
  -7 -15   7   62.36   11.62
  -7 -15   7  -34.87   29.74
  -7  15  -7   67.67   33.81
   7 -15  -7   55.86   11.70
   7 -15  -7   65.72   35.11
   8 -15   0    8.72    3.42
  -8 -15   0    6.68    2.53
  -8 -15   0   12.95    7.48
   8 -15   0   21.24   10.03
  -8 -15   0    3.13    2.96
   8  15   0   -0.25    4.32
   8  15   0  -34.13   18.43
   8 -15   0   28.36   22.82
   8 -15   0    2.45   11.22
  -8 -15   0   -0.22   15.09
   8  15  -1   -2.26    3.53
  -8 -15  -1    3.74   13.41
   8 -15   1   10.59    3.44
   8 -15   1  -12.58   12.26
   8  15  -1  -16.93   19.22
  -8 -15  -1    3.10    2.87
  -8 -15  -1    5.92    2.48
  -8 -15  -1   11.67    7.36
   8  15   1   10.26    6.11
  -8 -15   1    3.75    2.62
  -8 -15   1   16.49    8.66
  -8 -15   1  -36.21   12.00
   8 -15  -1    1.68    5.97
   8 -15  -1    5.85    4.73
  -8 -15  -2    5.56    2.58
   8 -15   2  -23.59   14.65
   8 -15   2    7.63    2.44
   8  15  -2   -4.91   19.43
  -8 -15  -2   14.19    8.06
  -8 -15  -2   -2.48   15.35
  -8 -15  -2    0.66    2.48
   8  15  -2    2.67    3.96
  -8 -15  -2  -40.83   53.85
   8 -15  -2   -4.66    4.40
   8  15   2   13.11    5.88
  -8 -15   2    6.02    5.96
  -8  15  -2   11.92   11.88
   8 -15  -2  -24.14   10.04
  -8 -15   2    1.25    2.48
   8 -15  -2   -3.06    3.26
  -8 -15   2  -23.36   12.88
   8 -15  -2   -4.29   17.90
   8  15  -3    2.22   20.21
  -8 -15  -3   -1.47   24.07
  -8 -15  -3   14.65    9.12
   8  15  -3   -0.89    3.36
   8 -15   3    7.02   18.16
  -8 -15  -3  -51.59   49.50
  -8 -15  -3    3.73    2.76
  -8 -15  -3    4.30    2.55
   8 -15   3    4.64    2.78
  -8 -15   3    8.84    3.47
   8 -15  -3    3.59   17.36
  -8 -15   3   11.00   14.67
  -8  15  -3   -9.96   11.02
   8 -15  -3    3.36    4.87
   8 -15  -3    5.41   11.89
  -8 -15   3    9.99    6.96
   8 -15  -3   -0.04    4.80
  -8 -15  -4    8.06    3.48
   8 -15   4   22.87   24.25
   8  15  -4   27.40   24.58
  -8 -15  -4    6.57    3.24
  -8 -15  -4   11.79   25.80
   8  15  -4    1.11    4.01
  -8 -15  -4  -42.91   52.66
  -8 -15  -4    3.55    8.12
   8 -15   4   10.93    3.55
  -8 -15   4   19.64    8.91
  -8 -15   4  -16.36   17.10
   8 -15  -4    0.10   20.10
   8 -15  -4    6.27   16.05
  -8 -15   4    2.21    2.99
  -8  15  -4   -2.48   13.39
  -8 -15  -5    4.35    3.27
   8  15  -5    2.52    4.41
  -8 -15  -5   12.69   30.86
   8 -15   5  -10.85   27.38
  -8 -15  -5    3.53    4.94
   8  15  -5   15.46   25.67
  -8 -15  -5  -32.84   54.57
  -8 -15  -5    8.13    4.79
  -8  15  -5   -5.83   15.42
   8 -15  -5  -20.45   20.91
  -8 -15   5   18.02   22.10
  -8 -15   5    2.30    3.37
  -8 -15   5    5.27    5.41
   8 -15  -5   12.24   17.55
  -8 -15  -6   -2.77    8.99
   8  15  -6   -4.89    3.23
  -8 -15  -6    9.77    5.69
  -8 -15  -6    2.10    3.31
  -8 -15  -6   27.33   61.96
   8  15  -6  -15.28   27.73
   8 -15  -6    3.60    3.95
  -8 -15   6  -56.46   21.86
   8 -15  -6  -17.05   24.25
  -8 -15   6   -3.85    2.17
  -8 -15   6    7.69    5.55
   9  15   0   64.41   16.03
  -9 -15   0   70.57   23.45
  -9 -15   0  104.40   25.86
   9  15   0   79.78   28.28
   9 -15   0   78.67   13.12
  -9 -15  -1   98.53   25.34
   9  15  -1   91.84   30.25
   9 -15   1  103.09   12.45
   9  15  -1   65.64   16.14
  -9 -15  -1   54.23   22.29
  -9 -15   1  130.68   26.32
   9  15   1   64.31   16.64
   9 -15  -1   87.69   20.50
   9 -15  -1   97.71   15.62
  -9 -15   1   43.46   19.26
   9  15  -2   -4.31   23.79
   9 -15   2   30.98    6.15
  -9 -15  -2    9.92   18.50
   9  15  -2   29.91    8.81
  -9 -15  -2   24.03    4.55
  -9 -15  -2   28.63   12.02
  -9 -15  -2   20.47   62.53
   9  15   2   23.24    9.34
  -9 -15   2   49.05   21.03
   9 -15  -2   15.16    7.53
   9 -15  -2   34.44   11.67
  -9 -15   2   44.87   15.39
  -9 -15  -3  -12.88   58.67
   9  15  -3   32.05   26.09
  -9 -15  -3  -12.89   23.16
  -9 -15  -3   41.46    5.83
   9 -15   3   53.73    8.18
   9  15  -3   35.82    8.99
  -9 -15  -3   46.66   17.25
   9 -15   3   43.19   23.37
  -9 -15   3   13.07   21.29
  -9 -15   3   63.74   15.62
   9 -15  -3   32.28   10.94
  -9  15  -3    2.66   13.48
   9 -15  -3   28.42    9.83
  -9 -15  -4   45.69   15.53
  -9 -15  -4   25.53   62.46
   9 -15   4   25.33   27.80
  -9 -15  -4   24.02    5.45
   9  15  -4   39.55    9.26
   9  15  -4   50.47   30.04
  -9 -15  -4   12.71   28.17
   9 -15   4   49.44    7.97
   9 -15  -4   25.48   17.12
  -9 -15   4    0.58   21.83
  -9  15  -4   -9.10   15.02
   9 -15  -4   28.93    8.83
  -9 -15   4   21.26   12.82
   9  15  -5   59.51   31.49
  -9 -15  -5  -29.89   29.73
  10  15   0    2.45    4.05
 -10 -15   0   -0.28    6.69
  10 -15   0    9.03    3.84
 -10 -15   0   -2.09   17.41
 -10 -15  -1  -13.66   17.51
 -10 -15  -1    3.27    9.85
  10  15  -1   -0.81    4.72
  10 -15   1   -2.57    2.41
  10  15  -1   32.26   28.52
 -10 -15   1  -23.11   18.66
 -10 -15   1    6.63    6.64
  10 -15  -1    2.64    3.98
  10  15   1   -6.88    3.47
  10  15  -2   -8.47   31.79
 -10 -15  -2   15.36   20.28
  10  15  -2    8.82    6.44
  10 -15   2   12.48    3.80
 -10 -15  -2   -7.48    5.63
 -10 -15   2    2.46    6.72
  10  15   2   -3.27    3.84
  10 -15  -2   -1.89    4.63
 -10 -15   2    5.89   21.22
  10 -15  -2   -1.71    4.20
   0  16   0  455.34   70.03
   0 -16   0  584.79   71.45
   0 -16   1  103.41   21.02
   0  16  -1   82.26   19.66
   0 -16  -1   90.18   21.34
   0  16   1  106.92   23.10
   0  16  -1   96.76   17.51
   0 -16   1  115.58   14.75
   0 -16  -1  114.07   18.33
   0  16   1   73.87   16.82
   0  16   2  161.57   36.01
   0 -16   2  203.77   36.07
   0 -16   2  254.42   28.90
   0  16  -2  181.23   29.28
   0 -16  -2  295.57   39.74
   0  16  -2  251.83   36.43
   0 -16  -2  214.51   30.78
   0 -16   3  248.25   42.12
   0 -16  -3  232.69   33.20
   0 -16  -3  238.27   31.68
   0  16  -3  202.61   30.50
   0 -16   3  240.36   29.89
   0 -16  -3  235.52   44.02
   0 -16   4  383.21   56.58
   0 -16  -4  226.02   71.82
   0  16  -4  380.89   48.89
   0 -16  -4  386.33   50.13
   0 -16  -4  387.83   52.49
   0 -16   4  392.99   48.28
   0 -16  -5  176.81   35.87
   0  16  -5  196.85   29.05
   0  16  -5  213.40   38.24
   0 -16   5  363.23   56.58
   0 -16  -5  200.24   41.80
   0 -16  -5  228.61   30.56
   0 -16   5  245.97   29.01
   0 -16  -5  127.28   56.77
   0  16  -6  123.00   28.57
   0 -16   6  125.41   30.02
   0 -16  -6  109.80   27.58
   0  16  -6   95.38   15.44
   0 -16  -6  113.14   16.79
   0 -16  -6  110.80   41.31
   0  16  -7   88.67   31.24
   0 -16   7   64.25   27.59
   0 -16  -7   84.06   42.76
   0  16  -7   71.59   13.80
   0 -16  -7   84.07   15.51
   0 -16  -7   52.21   38.31
   0 -16  -7   88.64   16.57
   0 -16  -8  120.18   18.38
   0 -16  -8   45.68   28.82
   0 -16   8  147.98   39.25
   0 -16  -8  150.77   55.28
   0 -16  -8  141.64   19.75
   0  16  -8  121.36   17.76
   0  16  -8  143.34   34.59
   0 -16  -9   28.71   30.05
   0  16  -9   59.01   11.66
   0  16  -9   23.33   25.26
   0 -16  -9   14.14   50.67
   0 -16  -9   43.74   12.04
   0 -16   9   26.83   34.72
  -1  16   0   -0.59    9.38
   1 -16   0   10.37    3.69
  -1 -16   0  -11.50    8.90
   1  16   0    7.60    4.48
   1 -16   0    9.23   10.09
  -1  16   0   10.48    4.07
  -1 -16   0    6.37    3.06
   1  16   0    9.77    9.00
   1 -16   1   -4.56    8.56
  -1 -16  -1    9.29    3.43
   1  16  -1   -4.27   13.07
  -1 -16  -1   -9.27   14.73
  -1  16   1   -0.60    8.55
   1 -16   1    5.17    3.09
   1  16  -1   -2.87    2.67
  -1  16  -1    2.63    2.44
  -1 -16   1    4.03    3.11
  -1  16  -1   10.83    9.18
   1  16   1   -4.27   16.69
   1 -16  -1   -4.28    9.47
   1 -16  -1   -1.66    3.05
   1  16   1    1.31    2.34
  -1 -16   1    9.17    7.51
   1  16  -2   -1.01    3.04
   1 -16   2   -5.30    9.45
  -1 -16  -2    2.83    3.98
   1 -16   2    2.45    2.22
  -1 -16  -2    0.95    4.04
   1  16  -2    1.55   10.23
  -1 -16  -2   -4.27   10.46
  -1  16   2  -24.00    8.57
   1 -16  -2    3.41    5.29
   1  16   2   -0.40    9.41
  -1 -16   2    4.74    7.97
   1 -16  -2  -15.42    9.21
  -1  16  -2   -1.77    2.40
  -1  16  -2    9.07    9.35
  -1 -16   2    5.63    2.67
   1 -16   3    2.85    2.68
  -1 -16  -3   -8.82    3.55
   1  16  -3   -7.87    8.13
   1 -16   3    2.90    8.42
  -1 -16  -3    6.95    4.83
  -1 -16  -3  -12.96   11.85
   1  16  -3   -2.04    3.50
  -1 -16   3    3.09    2.52
  -1  16  -3    4.91    3.84
   1 -16  -3  -28.30   28.48
   1 -16  -3   -3.37    4.06
  -1 -16   3   -3.51    7.80
   1 -16  -3    0.76   11.46
  -1  16  -3   20.52   12.56
   1 -16   4    4.71    2.94
  -1 -16  -4    4.15    4.04
   1  16  -4   17.22   20.10
   1  16  -4    0.08    3.74
  -1 -16  -4    6.25    8.11
  -1 -16  -4  -19.47   34.68
   1 -16   4   20.85   11.22
  -1 -16  -4    9.89   27.27
  -1  16  -4    0.79    3.96
  -1  16  -4   10.47   11.06
   1 -16  -4    4.28    7.00
  -1 -16   4   -5.80    9.01
   1 -16  -4    4.21   13.88
   1 -16  -4    5.65    3.33
   1 -16  -4  -20.79   38.21
   1 -16   5   12.05   15.40
   1 -16   5    8.80    3.63
  -1 -16  -5    1.71    7.28
   1  16  -5   12.93   12.26
  -1 -16  -5    6.79    5.66
  -1 -16  -5   -6.45   16.49
   1  16  -5    3.94    4.06
  -1 -16  -5    6.46   39.07
  -1  16  -5   -5.20   15.30
   1 -16  -5    0.52    5.57
   1 -16  -5  -29.42   13.33
   1 -16  -5    7.16    3.52
   1 -16  -5   -3.71   31.97
  -1 -16   5  -11.60   12.07
  -1  16  -5   -0.41    3.31
  -1 -16   5    2.72    3.27
  -1 -16  -6   14.26   21.88
  -1 -16  -6    9.32    5.41
  -1 -16  -6   13.43    6.01
   1  16  -6  -28.36   17.77
   1 -16   6  -26.65   14.96
  -1 -16  -6  -73.00   33.83
   1  16  -6    3.32    3.83
  -1  16  -6   -0.11    3.44
   1 -16  -6    0.17   16.60
  -1 -16   6   18.16   18.32
  -1  16  -6   -1.88   12.53
   1 -16  -6   12.65   33.35
   1 -16  -6    0.47    2.69
   1 -16   7   -5.46   20.84
  -1 -16  -7   50.55   31.75
  -1 -16  -7   10.32    5.37
  -1 -16  -7    0.07    3.33
   1  16  -7    1.31    4.21
  -1 -16  -7  -15.07   39.52
   1  16  -7   -4.40   14.85
  -1  16  -7   10.20   14.02
   1 -16  -7   17.39   18.76
  -1 -16   7  -12.88   20.71
   1 -16  -7   40.51   40.01
   1 -16  -7    2.90    4.70
  -1  16  -7   -1.32    3.37
  -1 -16  -8    3.59    4.89
   1  16  -8    1.00    4.05
  -1 -16  -8   53.10   47.45
  -1 -16  -8    2.89    5.15
   1 -16   8   31.30   28.42
  -1 -16  -8  -28.98   24.59
   1  16  -8  -21.99   25.56
  -1  16  -8    4.81   17.01
  -1  16  -8    3.02    4.13
  -1 -16   8   23.62   25.68
   1 -16  -8    1.41   19.49
   1 -16  -8    4.29    5.21
   1 -16  -8   26.81   39.29
  -1 -16  -9    5.48    4.22
   1  16  -9   41.85   25.29
   1  16  -9    5.41    4.69
  -1 -16  -9  -19.93   46.88
  -1 -16  -9   94.03   56.79
   1 -16   9  -29.02   32.76
   1 -16  -9  -29.81   41.47
  -1 -16   9   24.53   30.80
  -1  16  -9    2.33    4.60
   1 -16  -9   18.60    6.17
  -1  16  -9   -9.55   23.27
  -2 -16   0  323.75   48.99
   2 -16   0  245.87   32.33
   2 -16   0  202.95   36.38
  -2  16   0  249.94   38.10
  -2 -16   0  247.13   31.91
  -2  16   1   83.65   19.72
   2  16  -1   71.92   14.06
   2  16  -1   70.58   23.59
  -2 -16  -1  140.03   30.88
   2 -16   1  108.02   21.37
  -2 -16  -1   63.13   14.72
  -2 -16  -1   93.22   12.50
   2 -16   1   74.80   11.35
   2 -16  -1   95.79   15.88
  -2 -16   1  109.84   30.57
   2  16   1   52.05   20.04
  -2 -16   1  100.33   13.83
   2 -16  -1   54.71   16.30
  -2  16  -1   54.73   12.50
  -2  16  -1   41.67   14.75
   2 -16   2  383.19   47.63
  -2  16   2  319.15   53.03
   2  16  -2  519.56   65.12
  -2 -16  -2  378.86   50.39
   2  16  -2  348.02   48.51
   2 -16   2  404.71   53.93
  -2 -16   2  386.63   47.54
   2 -16  -2  353.23   54.40
  -2  16  -2  321.46   52.90
   2  16   2  478.62   71.99
   2 -16  -2  345.63   49.60
  -2 -16   2  471.57   55.84
  -2 -16  -3  170.00   25.05
   2 -16   3  176.27   22.28
   2 -16   3  161.46   31.28
  -2 -16  -3  189.72   37.44
   2  16  -3  171.86   23.24
   2  16  -3  158.41   31.26
  -2 -16  -3  196.18   25.80
  -2 -16   3  200.76   22.48
  -2  16  -3  130.72   22.47
   2 -16  -3  160.91   28.42
  -2  16  -3  138.76   28.91
  -2 -16   3  111.41   28.98
   2 -16  -3  147.62   31.23
   2 -16  -3  262.38   61.46
   2  16  -4  239.47   33.20
  -2 -16  -4  303.44   37.53
  -2 -16  -4  121.98   54.87
  -2 -16  -4  406.32   68.70
   2 -16   4  290.91   47.07
  -2 -16  -4  283.32   36.09
   2  16  -4  269.47   41.16
   2 -16   4  270.82   32.69
   2 -16  -4  283.41   65.26
  -2  16  -4  218.46   33.03
   2 -16  -4  195.83   34.97
  -2 -16   4  253.01   32.65
   2 -16  -4  241.93   33.34
  -2  16  -4  245.90   39.53
  -2 -16   4  311.08   48.31
   2 -16  -4  287.03   48.14
   2 -16   5  207.69   24.28
  -2 -16  -5   97.58   51.18
  -2 -16  -5  213.97   42.91
   2  16  -5  155.90   24.20
   2 -16   5  154.57   35.44
  -2 -16  -5  168.76   26.36
  -2 -16  -5  213.44   35.21
   2 -16  -5  110.31   44.62
   2 -16  -5  187.27   24.33
   2 -16  -5  178.76   36.74
  -2 -16   5  202.63   24.13
  -2  16  -5  245.09   37.06
  -2  16  -5  148.70   24.06
  -2 -16   5  194.22   43.04
   2 -16  -5  152.72   30.94
   2  16  -6  157.98   22.40
  -2 -16  -6  164.06   23.50
   2 -16   6   92.82   31.87
   2  16  -6  179.42   33.43
  -2 -16  -6   70.82   53.52
  -2 -16  -6  179.11   25.40
  -2 -16  -6  333.49   63.98
   2 -16  -6  156.31   35.14
  -2  16  -6  167.05   22.63
   2 -16  -6  221.89   56.12
  -2  16  -6  150.02   32.32
   2  16  -7  102.91   17.35
  -2 -16  -7   70.10   50.22
   2  16  -7   56.90   26.38
  -2 -16  -7  132.95   18.76
  -2 -16  -7   85.49   31.87
   2 -16   7   86.97   33.21
  -2 -16  -7   93.13   18.23
  -2  16  -7  113.24   15.60
  -2  16  -7   98.50   25.96
   2 -16  -7   77.28   43.43
  -2 -16   7   87.45   49.69
   2 -16  -7   54.82   25.32
   2 -16  -7  108.81   19.42
   2  16  -8  195.93   48.70
  -2 -16  -8  128.36   22.18
  -2 -16  -8  111.52   19.30
  -2 -16  -8   50.97   44.46
   2  16  -8   91.38   16.18
  -2 -16  -8   62.25   34.38
   2 -16   8   69.24   32.91
  -2 -16   8   82.36   45.05
   2 -16  -8  122.50   48.50
   2 -16  -8   94.36   18.15
  -2  16  -8   93.45   16.26
  -2  16  -8   31.52   24.10
  -2 -16  -9  -45.98   59.96
   2  16  -9  -27.14   23.26
   2 -16   9   36.92   54.18
   2  16  -9   18.46    6.46
  -2 -16  -9    3.78    7.60
  -2 -16  -9   19.86   51.45
  -2 -16  -9    9.32    7.17
   2 -16  -9   45.40   28.70
   2 -16  -9   11.46    6.89
   2 -16  -9  108.03   68.23
  -2 -16   9   73.29   42.29
  -2  16  -9   27.94    7.14
  -2  16  -9  -31.04   22.59
   3 -16   0   -0.74    8.07
  -3  16   0   -0.23    8.36
   3  16   0    4.28    4.23
  -3 -16   0   -3.99   10.11
   3 -16   0    5.87    3.08
  -3 -16   0   -0.78    2.40
  -3 -16   0    0.87    4.64
   3  16   0   12.69   13.18
  -3 -16  -1    9.77    3.62
  -3  16   1   10.08    9.08
  -3 -16  -1   12.01   19.63
  -3 -16  -1    1.86    4.37
   3 -16   1    1.62    7.88
   3  16  -1   -1.32    3.67
   3 -16   1    5.12    2.96
   3  16  -1    0.90   10.93
  -3 -16   1    5.07    3.63
   3 -16  -1    3.31    4.16
   3  16   1   28.70   17.43
   3  16   1    7.04    4.77
  -3  16  -1   -5.83    9.29
  -3 -16   1    5.43   11.84
   3 -16  -1   12.72   12.48
  -3 -16  -2    5.81    4.27
   3  16  -2  -12.49    9.95
   3 -16   2    3.75    9.40
  -3 -16  -2    3.75    5.14
  -3 -16  -2   14.44   17.36
   3  16  -2    4.83    4.97
   3 -16   2    6.56    2.94
  -3  16  -2    9.71    3.22
   3  16   2   -5.41   11.58
  -3 -16   2    8.88    2.96
  -3 -16   2   -8.13    8.11
   3 -16  -2    1.60   10.35
   3 -16  -2    1.07    4.89
  -3  16  -2    4.83   10.68
   3  16   2    1.86    3.43
   3 -16   3    3.06    2.76
   3 -16   3    2.63    8.37
  -3 -16  -3   11.59    5.67
   3  16  -3   -4.88    2.24
  -3 -16  -3   10.75    6.20
  -3 -16  -3   -0.56   12.47
   3  16  -3    5.74   11.85
  -3 -16   3    4.29    2.78
   3 -16  -3    0.59    5.71
  -3  16  -3    0.49    9.16
  -3  16  -3    0.81    2.81
  -3 -16   3   -0.78    9.04
   3 -16  -3    7.37   12.97
   3 -16  -3   16.61   31.41
   3  16  -4   -2.28    2.64
   3  16  -4   -4.20   12.21
  -3 -16  -4   28.27   41.07
   3 -16   4    3.76   12.64
  -3 -16  -4  -20.02   21.80
   3 -16   4    4.98    2.25
  -3 -16  -4    4.70    6.12
  -3 -16  -4    7.07    5.82
   3 -16  -4   -6.00   12.33
  -3 -16   4   -1.08   14.75
   3 -16  -4  -14.43   26.82
  -3  16  -4  -18.21    8.82
  -3 -16   4    1.76    2.72
  -3  16  -4    4.34    3.95
   3 -16  -4   -4.13    3.91
  -3 -16  -5   14.56    6.92
   3 -16   5   12.73   16.11
  -3 -16  -5    0.36    3.89
   3  16  -5   -3.81   10.42
  -3 -16  -5   35.96   67.57
   3 -16   5   10.85    2.96
  -3 -16  -5   15.41   20.27
  -3 -16  -5   -0.82    8.05
  -3  16  -5    2.29   11.19
  -3 -16   5   -1.84   19.82
  -3 -16   5    8.55    3.66
   3 -16  -5   -9.07   14.13
   3 -16  -5   -5.51   27.99
  -3  16  -5    7.01    4.21
   3 -16   6   21.98   21.26
   3  16  -6   11.89   13.96
  -3 -16  -6    3.69    4.36
  -3 -16  -6   51.90   48.08
  -3 -16  -6   10.41   20.92
   3  16  -6    5.04    4.38
  -3 -16  -6    3.89    5.45
  -3  16  -6    1.20    3.72
   3 -16  -6    6.23   32.09
  -3 -16   6   -9.64   16.77
  -3  16  -6   22.96   14.90
   3 -16  -6   -7.82   16.41
  -3 -16  -7   85.36   53.07
  -3 -16  -7  -30.43   24.85
   3  16  -7   10.89   17.22
  -3 -16  -7    6.30    5.37
   3  16  -7    0.42    3.61
   3 -16   7  -24.90   21.20
   3 -16  -7   23.66   32.72
  -3 -16   7    2.75   22.26
   3 -16  -7    4.58    4.36
  -3  16  -7    8.91   16.71
  -3  16  -7    2.77    3.87
  -3 -16  -8    2.51   75.87
  -3 -16  -8    3.16    5.29
   3  16  -8   34.80   21.61
  -3 -16  -8    2.26    5.50
  -3 -16  -8   44.26   60.71
   3 -16   8   -1.28   38.10
   3  16  -8   -1.08    3.86
  -3  16  -8   -0.25    3.61
  -3  16  -8    2.75   18.47
  -3 -16   8    9.73   26.15
   3 -16  -8    0.71    3.23
   3 -16  -8    4.32   37.05
   3 -16  -8   -2.38   20.15
  -3 -16  -9    8.78   84.37
  -3 -16  -9    2.57    6.58
   3 -16   9  -81.39   35.20
  -3 -16  -9   36.06   40.85
   3  16  -9    7.51    5.76
  -3 -16  -9   -0.78    3.93
   3  16  -9  -48.28   25.50
  -3 -16   9   -9.92   32.34
  -3  16  -9  -45.42   21.52
  -3  16  -9   -4.16    2.96
   3 -16  -9   -2.97   27.00
   3 -16  -9    7.84    5.16
   3 -16  -9   10.97   37.14
   4 -16   0  391.06   45.97
   4  16   0  330.32   52.86
   4  16   0  282.50   46.19
  -4 -16   0  374.59   49.13
   4 -16   0  321.70   49.47
  -4  16   0  316.12   50.13
  -4 -16   0  412.77   45.29
   4  16  -1  133.33   22.61
  -4 -16  -1  194.10   22.49
   4 -16   1  194.20   22.19
   4  16  -1  111.75   29.53
  -4 -16  -1  164.12   25.43
  -4  16   1  167.73   30.99
  -4 -16  -1  191.03   41.32
   4 -16   1  145.03   26.79
  -4 -16   1  160.16   21.48
   4 -16  -1  172.16   29.13
   4  16   1  165.23   34.02
  -4  16  -1  123.23   28.12
  -4 -16   1  157.29   25.23
  -4 -16   1  182.55   34.50
   4 -16  -1  147.33   22.67
   4  16  -2  207.18   44.02
  -4 -16  -2  248.08   48.20
  -4 -16  -2  314.10   35.56
  -4 -16  -2  257.75   37.77
   4 -16   2  225.96   39.21
   4 -16   2  276.50   33.99
   4  16  -2  205.33   34.59
  -4 -16   2  298.65   33.98
   4  16   2  291.64   48.70
  -4 -16   2  260.07   37.64
   4 -16  -2  209.84   35.23
  -4 -16   2  340.83   43.36
  -4  16  -2  260.27   40.65
   4 -16  -2  315.44   41.92
   4 -16   3  105.53   14.02
   4  16  -3   46.38   21.74
   4 -16   3  107.96   23.12
  -4 -16  -3   51.27   22.87
  -4 -16  -3   99.18   21.41
  -4 -16  -3  127.73   16.49
   4  16  -3  100.77   17.12
   4 -16  -3   90.74   22.19
  -4 -16   3  105.93   14.14
   4 -16  -3   87.20   19.07
  -4  16  -3   92.89   22.99
   4 -16  -3   65.45   36.11
  -4 -16   3   90.32   24.42
   4 -16   4  194.86   35.05
   4  16  -4  272.36   49.29
   4 -16   4  186.21   22.80
   4  16  -4  151.67   23.36
  -4 -16  -4  183.27   27.40
  -4 -16  -4  198.81   44.85
  -4 -16  -4  227.03   27.00
   4 -16  -4  143.79   32.11
  -4 -16   4  186.66   22.90
   4 -16  -4  224.26   55.92
   4 -16  -4  127.04   27.67
  -4  16  -4  129.32   22.74
  -4  16  -4  183.96   34.02
  -4 -16  -5   83.85   16.45
   4  16  -5   98.03   13.92
  -4 -16  -5   67.61   31.63
  -4 -16  -5  153.12   24.39
  -4 -16  -5   92.06   20.52
   4 -16   5  103.59   13.16
  -4 -16  -5  132.28   75.50
   4  16  -5   50.49   20.92
   4 -16   5   42.31   22.57
  -4 -16   5   39.25   23.16
  -4  16  -5   46.69   18.66
  -4  16  -5   91.20   15.59
   4 -16  -5  106.06   27.26
  -4 -16   5  103.74   13.46
   4 -16  -5  131.60   45.19
  -4 -16  -6  148.39   26.21
  -4 -16  -6   13.73   49.43
   4  16  -6  106.99   15.03
   4  16  -6  153.99   34.52
  -4 -16  -6  126.61   16.32
  -4 -16  -6   48.97   26.16
   4 -16   6   77.57   30.92
  -4  16  -6   57.15   21.25
   4 -16  -6    8.35   33.27
  -4 -16   6   90.32   26.82
  -4  16  -6   95.70   14.70
   4  16  -7   54.71   23.08
   4 -16   7   27.07   28.45
  -4 -16  -7   65.82   62.78
  -4 -16  -7   29.83    8.27
  -4 -16  -7   68.99   48.45
   4  16  -7   25.82    7.52
  -4 -16  -7   47.16   14.19
  -4 -16   7   46.55   23.33
  -4  16  -7   29.24    7.31
   4 -16  -7   27.52   21.63
  -4  16  -7    3.66   17.66
   4 -16  -7   44.68   10.41
   4 -16  -7  -20.23   31.01
   4  16  -8   12.59   23.00
   4  16  -8   60.06   11.96
  -4 -16  -8  -19.33   28.44
  -4 -16  -8   69.75   54.05
   4 -16   8   76.83   36.05
  -4 -16  -8   71.46   17.87
  -4 -16  -8   62.51   12.76
  -4  16  -8   67.79   12.41
   4 -16  -8   23.43   24.08
  -4  16  -8   23.39   22.13
   4 -16  -8   50.99   11.76
  -4 -16   8   11.15   33.01
   4 -16  -8  138.79   45.16
  -4 -16  -9   36.80   10.15
   4  16  -9   27.10    7.93
  -4 -16  -9   16.56   12.22
  -4 -16  -9   31.67   35.07
  -4 -16  -9   11.31   62.62
   4 -16   9   64.62   42.73
   4  16  -9   58.43   32.00
   4 -16  -9   69.02   31.88
   4 -16  -9    4.23   35.35
  -4 -16   9  -16.18   48.18
  -4  16  -9   24.43    7.60
  -4  16  -9   15.42   25.42
   4 -16  -9   33.33    9.58
  -5  16   0    4.12   10.16
   5 -16   0   15.33    9.80
   5  16   0   -1.16   11.60
  -5 -16   0    4.71    5.64
   5 -16   0    6.62    4.95
  -5 -16   0   11.19    3.58
   5  16   0    3.52    4.19
  -5 -16   0   -9.37   11.94
  -5 -16  -1   -7.61   12.73
   5 -16   1   14.23    3.85
  -5 -16  -1    6.80    3.69
   5  16  -1    7.23    4.60
   5 -16   1    4.92    8.70
  -5 -16  -1    0.51    4.92
   5  16  -1   -7.33   11.22
  -5 -16   1    4.33    5.80
   5  16   1   21.52   16.11
   5 -16  -1   10.16   10.04
  -5 -16   1    1.05    2.63
   5 -16  -1    5.57    5.29
   5  16   1    9.93    5.23
  -5 -16   1   -7.54    9.07
  -5  16  -1   -8.22    8.90
  -5 -16  -2    3.34    4.09
   5 -16   2    2.91    9.95
  -5 -16  -2    0.36    4.75
   5  16  -2    4.29    4.82
   5 -16   2    9.88    3.46
  -5 -16  -2   12.03   18.08
   5  16  -2  -13.23   14.62
  -5  16  -2   17.99   10.54
  -5 -16   2    5.01    3.00
  -5 -16   2   -7.71    8.43
   5 -16  -2   18.83   31.80
   5  16   2   13.76    5.33
  -5 -16   2    6.17    6.01
   5 -16  -2   -9.91   10.86
   5  16   2   10.77   15.43
   5 -16  -2    6.57    5.36
  -5 -16  -3   24.22    6.37
   5 -16   3   10.04    3.37
   5 -16   3  -28.96   11.79
  -5 -16  -3   39.10   48.94
   5  16  -3    2.08    4.34
  -5 -16  -3    2.81   17.52
   5  16  -3    0.15   13.13
  -5 -16  -3    8.24    6.47
   5 -16  -3  -44.46   26.89
  -5 -16   3    6.46   12.86
   5 -16  -3   -3.78   13.09
  -5  16  -3    6.33   10.48
   5 -16  -3    2.66    4.95
  -5 -16   3    3.34    3.08
  -5 -16   3    3.25    4.72
  -5 -16  -4   12.21    5.47
  -5 -16  -4   -3.23   21.17
  -5 -16  -4   10.14    6.16
  -5 -16  -4   31.69   53.75
   5  16  -4   22.04   15.34
   5 -16   4   14.08    3.26
   5  16  -4    1.39    4.00
   5 -16   4   -4.48   15.71
  -5 -16  -4    7.59    4.37
   5 -16  -4  -18.54   27.22
   5 -16  -4    7.86   16.61
  -5 -16   4    7.87    6.42
  -5  16  -4   -4.21   10.85
  -5 -16   4    6.07    3.30
  -5  16  -4    4.47    2.61
  -5 -16   4  -13.14   11.20
  -5 -16  -5    2.31   48.27
   5  16  -5  -12.68   14.34
  -5 -16  -5    8.03   20.92
  -5 -16  -5    3.84    4.03
  -5 -16  -5   17.29    7.16
   5 -16   5    2.03    2.91
   5  16  -5    1.01    4.06
  -5 -16  -5   13.41    7.53
  -5 -16   5   13.96   18.84
  -5  16  -5    0.26    2.37
  -5 -16   5    6.52    3.68
  -5 -16   5    8.90    5.58
  -5  16  -5   15.99   13.48
   5 -16  -5  -23.36   27.86
  -5 -16  -6    4.64    3.91
  -5 -16  -6  -18.68   26.15
  -5 -16  -6  -52.80   46.63
   5  16  -6   49.46   18.65
   5  16  -6   -0.46    3.26
  -5 -16  -6    6.85    7.24
   5 -16   6  -36.25   20.94
   5 -16  -6   54.44   21.97
  -5  16  -6    5.12    3.03
  -5 -16   6    4.75   19.51
  -5  16  -6    6.08   14.69
   5 -16  -6  -41.05   26.15
   5 -16   7   33.39   31.83
  -5 -16  -7   70.64   56.48
  -5 -16  -7    9.01    5.71
   5  16  -7   31.58   19.23
   5  16  -7   -1.32    3.69
  -5 -16  -7   11.29    8.55
  -5 -16  -7    0.16   30.26
  -5  16  -7    8.50   18.39
   5 -16  -7  -18.15   20.44
   5 -16  -7   29.91   32.45
  -5 -16   7   11.05   27.76
   5 -16  -7    6.78    4.39
  -5  16  -7    6.88    4.65
  -5 -16  -8   -0.17    5.02
  -5 -16  -8    3.22    9.01
  -5 -16  -8 -104.35   77.86
   5 -16   8   42.63   35.03
   5  16  -8   -9.05   22.51
  -5 -16  -8  -30.54   30.13
   5  16  -8    4.33    4.26
  -5  16  -8  -20.03   20.74
   5 -16  -8    3.37    4.06
  -5  16  -8    3.97    4.41
   5 -16  -8   -1.57   24.27
   5 -16  -8   36.71   30.57
  -5 -16   8  -20.36   23.05
  -6 -16   0  128.58   16.16
   6 -16   0   97.34   22.22
   6 -16   0  126.74   17.10
   6  16   0  120.80   21.77
  -6  16   0   80.21   21.66
   6  16   0   79.29   26.91
  -6 -16   0  143.61   30.37
  -6 -16   0  125.32   25.40
  -6 -16  -1  108.33   14.37
   6  16  -1   60.27   23.49
   6  16  -1   88.95   18.14
   6 -16   1   79.01   20.70
   6 -16   1  122.43   14.88
  -6 -16  -1  132.05   27.02
  -6 -16  -1   71.94   22.76
   6 -16  -1   49.77   33.84
  -6  16  -1  107.30   22.48
   6  16   1   74.95   17.74
  -6 -16   1  106.57   14.20
   6 -16  -1  126.16   19.52
  -6 -16   1  113.72   24.11
   6  16  -2  143.37   34.71
  -6 -16  -2  153.66   30.10
  -6 -16  -2  126.18   33.79
   6  16  -2  154.43   24.26
   6 -16   2  215.21   23.32
  -6  16  -2  140.51   29.60
   6 -16  -2  149.10   24.44
  -6 -16   2  178.09   28.02
  -6 -16   2  118.84   28.89
   6 -16  -2  129.62   42.44
   6 -16  -2  221.77   27.11
  -6 -16   2  192.73   22.94
  -6 -16  -3   94.98   16.17
  -6 -16  -3   32.68   56.09
  -6 -16  -3  106.45   24.37
   6  16  -3  104.54   18.72
   6 -16   3  132.46   15.73
  -6 -16  -3   61.53   24.36
  -6 -16  -3  150.70   17.33
   6 -16  -3   88.29   38.08
  -6 -16   3  132.45   24.40
   6 -16  -3   70.72   18.57
  -6 -16   3  120.78   28.40
  -6 -16   3  109.16   15.37
  -6  16  -3   97.86   22.94
   6 -16  -3  123.31   17.92
  -6 -16  -4  123.61   41.05
   6  16  -4  118.28   19.86
   6  16  -4   74.89   28.90
  -6 -16  -4  141.30   27.50
  -6 -16  -4  110.16   17.51
   6 -16   4  133.51   16.65
  -6 -16  -4   78.91   55.87
  -6 -16   4  130.91   26.72
  -6 -16   4  120.35   16.73
   6 -16  -4   81.19   35.82
  -6 -16   4  103.92   30.24
  -6 -16  -5   50.63   12.60
   6  16  -5   47.46   10.11
   6  16  -5   14.52   21.52
  -6 -16  -5    9.83   30.92
   6 -16   5   22.54   22.69
   6 -16   5   51.69   10.40
  -6 -16  -5   46.25   56.18
  -6 -16  -5   94.27   20.44
  -6 -16  -5   67.02   11.77
  -6 -16   5   45.38    9.28
  -6 -16   5   60.38   15.69
   6 -16  -5   62.35   33.97
  -6  16  -5   20.85   16.06
  -6 -16   5   19.73   19.13
   6  16  -6   68.26   12.41
   6  16  -6   77.58   26.18
  -6 -16  -6   85.39   13.93
  -6 -16  -6  -10.92   28.53
   6 -16   6   28.67   30.50
  -6 -16  -6   62.21   19.28
  -6 -16  -6   32.76   59.97
  -6 -16   6   -7.64   19.12
   6 -16  -6   69.09   33.87
  -6 -16   6   77.15   12.42
  -6  16  -6   46.03   19.99
  -6  16  -6   48.60    9.74
   6 -16  -6   42.43   21.58
  -6 -16   6   83.85   18.40
  -6 -16  -7   73.19   17.39
   6  16  -7   36.86    8.80
   6  16  -7   60.69   22.29
  -6 -16  -7   47.81    9.82
  -6 -16  -7 -150.34   48.99
   6 -16   7   -2.95   33.44
  -6 -16  -7  -34.78   34.00
   6 -16  -7   16.70   24.35
  -6  16  -7   36.47   19.63
  -6 -16   7   13.41    9.54
  -6 -16   7  -41.57   27.47
   6 -16  -7   27.73    8.72
  -6  16  -7   25.65    7.18
   6 -16  -7   26.12   31.09
  -6 -16  -8  -16.07   49.31
   7  16   0    4.66    3.96
   7  16   0   24.91   19.41
  -7 -16   0    4.64    4.62
   7 -16   0   -6.09    9.91
   7 -16   0    3.64    6.71
  -7 -16   0    1.43   14.63
   7 -16   0    0.13    3.16
  -7 -16   0    2.52    2.46
  -7 -16  -1   10.39    2.80
  -7 -16  -1    9.23    5.47
   7  16  -1    1.74    4.35
   7 -16   1    8.24    8.35
   7 -16   1   10.82    3.23
   7 -16   1    9.39   12.82
   7  16  -1   14.74   19.53
   7  16   1  -17.96   16.87
  -7 -16   1   -4.82   12.27
   7 -16  -1    2.59    4.41
  -7  16  -1    2.69   12.01
   7 -16  -1    5.85   28.53
   7 -16  -1   -0.25   10.47
  -7 -16   1    2.83    2.61
   7 -16  -1   -2.10    4.40
  -7 -16   1    9.75    6.57
   7  16   1    3.44    4.72
   7 -16   2   14.53    3.36
  -7 -16  -2   12.93    3.50
   7 -16   2   -5.69   14.40
  -7 -16  -2   -0.32    3.21
  -7 -16  -2   10.02    6.42
   7  16  -2   -9.45   17.27
   7  16  -2   -3.85    3.21
  -7 -16   2    0.01    5.59
   7 -16  -2    3.56    5.34
  -7  16  -2   -9.86   11.36
   7 -16  -2    2.91    4.98
  -7 -16   2    9.80   13.43
  -7 -16   2    4.43    2.95
   7 -16  -2    6.45   11.39
   7 -16  -2   39.44   27.97
   7  16   2   10.05    4.48
   7 -16   3   -2.22   16.66
  -7 -16  -3  -73.66   50.50
  -7 -16  -3    7.08    4.11
  -7 -16  -3   12.00    3.95
   7  16  -3   29.68   19.45
   7  16  -3   -1.10    3.94
  -7 -16  -3    1.31    7.31
   7 -16  -3   -5.21    4.32
   7 -16  -3    3.78   25.72
  -7  16  -3  -10.93   12.00
   7 -16  -3   -3.48    3.63
   7 -16  -3   -4.16   14.24
  -7 -16   3    5.43    4.60
  -7 -16   3    6.84    3.36
  -7 -16  -4    7.58    4.46
   7  16  -4   14.79   22.44
  -7 -16  -4   -8.58   30.84
   7 -16   4    4.57    2.57
  -7 -16  -4  -70.60   54.88
  -7 -16  -4   12.56    6.57
   7 -16   4    2.42   28.98
  -7 -16  -4   -2.97    2.37
   7  16  -4   -0.42    3.66
   7 -16  -4   13.83   15.47
  -7  16  -4  -20.39   11.97
  -7 -16   4    5.84    3.80
   7 -16  -4  -52.18   23.50
  -7 -16   4    5.58    5.70
  -7 -16  -5   21.94    9.07
  -7 -16  -5   20.36   29.44
  -7 -16  -5    4.03    5.36
   7  16  -5   -0.23    3.62
   7  16  -5  -12.36   22.98
  -7 -16  -5    8.54    2.84
   7 -16   5    1.64   23.39
  -7 -16  -5   57.67   56.99
   7 -16  -5  -27.69   25.05
  -7 -16   5   -0.74    3.15
   7 -16  -5   -9.01   17.46
  -7  16  -5  -15.70   13.08
  -7 -16   5    9.26    5.20
  -7 -16   5  -25.06   19.96
   7  16  -6    2.60   20.75
  -7 -16  -6  -75.92   58.13
   7  16  -6    0.28    3.70
  -7 -16  -6    5.49    6.03
   7 -16   6  -24.46   30.20
  -7 -16  -6   10.24   29.89
  -7 -16  -6   10.80    4.55
  -7 -16  -6   16.35   10.37
  -7  16  -6  -11.37   15.89
  -7 -16   6   -1.26    4.20
   7 -16  -6    7.97   20.82
  -7 -16   6    4.34   24.70
   7 -16  -6    4.77    3.45
  -7 -16   6    0.95    3.61
   7 -16  -6    8.01   28.95
   7  16  -7    0.81    4.73
  -7 -16  -7  -19.34   43.55
  -7 -16  -7   19.02   10.49
   7  16  -7   10.29   26.14
  -7 -16  -7   17.01   64.57
  -7 -16  -7    4.89    3.85
   7 -16  -7    2.43    3.39
  -7 -16   7   10.49    5.42
  -7 -16   7  -32.21   27.84
   7 -16  -7  -20.47   29.98
  -8 -16   0  144.78   16.81
   8  16   0   99.57   21.44
  -8 -16   0   90.95   26.33
  -8 -16   0  102.02   24.72
   8  16   0  104.91   29.47
   8 -16   0  125.72   23.41
   8 -16   0  133.83   17.98
   8 -16   0  126.63   27.60
   8 -16   0   71.53   34.69
   8 -16   1   96.87   12.18
  -8 -16  -1  115.37   26.82
   8 -16   1   54.22   19.40
  -8 -16  -1   91.06   11.46
  -8 -16  -1   85.29   12.00
   8  16  -1   65.15   15.01
   8  16  -1   88.16   27.89
  -8 -16  -1   53.36   23.65
   8 -16  -1   93.33   28.38
  -8 -16   1   44.61   17.65
  -8 -16   1   81.36   19.66
  -8 -16   1   95.59   11.49
   8 -16  -1   66.27   18.47
   8 -16  -1   62.35   17.25
   8 -16  -1   70.75   14.75
   8  16   1   43.23   14.49
  -8 -16  -2   55.02   25.21
   8 -16   2   90.68   24.77
  -8 -16  -2  162.47   29.96
   8 -16   2  125.88   14.80
   8  16  -2   94.78   18.93
   8  16  -2   55.59   27.63
  -8 -16  -2  108.36   14.92
  -8 -16  -2   -1.69   59.45
  -8 -16  -2  128.62   14.53
  -8  16  -2   75.74   21.05
   8 -16  -2  123.21   23.33
   8 -16  -2   99.72   20.95
  -8 -16   2   53.05   22.03
  -8 -16   2  109.85   14.34
  -8 -16   2   79.14   21.21
   8 -16  -2  125.13   29.42
   8 -16  -2   97.57   18.92
   8  16   2   67.43   18.62
   8 -16   3   38.08   20.59
  -8 -16  -3   48.31    8.03
   8 -16   3   50.95    8.83
  -8 -16  -3   38.26    8.26
   8  16  -3   41.34   24.55
  -8 -16  -3  -15.85   57.86
   8  16  -3   35.58    9.90
  -8 -16  -3   58.47   17.45
  -8 -16  -3   41.55   26.63
   8 -16  -3   23.70    9.79
  -8 -16   3   34.56   12.53
  -8 -16   3   15.87   18.02
   8 -16  -3   36.83   16.07
  -8  16  -3   27.69   15.96
   8 -16  -3   54.22   12.63
   8 -16  -3   55.95   23.83
  -8 -16   3   49.67    8.23
   8 -16   4   49.34   26.66
  -8 -16  -4   19.03   24.41
  -8 -16  -4   69.20   11.43
   8 -16   4   63.64   10.84
  -8 -16  -4   56.12   10.44
  -8 -16  -4   68.77   19.06
  -8 -16  -4   99.91   63.72
   8  16  -4   54.43   12.02
   8  16  -4   55.57   29.18
  -8 -16   4   23.30   20.70
  -8 -16   4   66.68   17.97
   8 -16  -4   77.58   14.09
   8 -16  -4   69.75   21.40
  -8 -16   4   67.02    9.59
   8 -16  -4   55.84   24.53
  -8  16  -4   34.23   18.34
   8 -16   5   45.12   32.35
  -8 -16  -5   33.03    6.98
   8  16  -5   30.09   28.62
  -8 -16  -5   58.79   19.35
  -8 -16  -5  -61.25   59.54
  -8 -16  -5   40.62    8.08
   8  16  -5   15.12    6.38
  -8 -16   5   16.75    9.75
  -8 -16   5  -25.26   20.04
   8 -16  -5   -3.30   19.66
  -8  16  -5   33.54   18.83
   8 -16  -5    4.09   25.13
  -8 -16   5   38.31    7.25
   8  16  -6   43.00   10.39
  -8 -16  -6   70.81   19.12
  -8 -16  -6    3.35   74.76
  -8 -16  -6   55.39   11.90
   8  16  -6   15.05   35.07
  -8 -16  -6   37.29    8.53
  -8 -16   6   -8.23   25.11
   8 -16  -6   26.00   30.11
   8 -16  -6   35.09    9.60
  -8 -16   6   56.81   16.10
   9  16   0   -0.67    4.30
  -9 -16   0   11.80   10.80
  -9 -16   0    7.09   18.22
  -9 -16   0   -0.29    1.06
  -9 -16   0    3.96    2.29
   9  16   0   -2.84   23.29
   9 -16   0    0.32    3.49
  -9 -16  -1    2.02    2.22
  -9 -16  -1   11.61   11.60
   9  16  -1    2.67   26.08
   9  16  -1    1.99    4.41
   9 -16   1    4.00    3.09
  -9 -16  -1   14.57   20.94
  -9 -16  -1   -0.83    0.86
  -9 -16   1    1.55    2.20
   9 -16  -1    3.30    6.37
  -9 -16   1    5.80   18.20
  -9 -16   1    1.90    7.44
   9 -16  -1    1.94    3.63
  -9 -16   1    0.48    0.98
   9  16   1   15.12    5.67
  -9 -16  -2   71.34   68.34
  -9 -16  -2    1.81    2.00
   9  16  -2    1.38    4.91
   9 -16   2    4.82    2.97
  -9 -16  -2    0.19    1.10
   9  16  -2   44.06   28.18
  -9 -16  -2   -1.93   18.72
  -9 -16  -2    5.80    8.51
   9  16   2    5.06    3.90
   9 -16  -2    2.92    6.98
  -9 -16   2    1.10    1.26
   9 -16  -2   -3.87    3.52
  -9 -16   2    5.43    8.61
  -9 -16   2   -6.67   18.09
  -9 -16   2   -0.51    1.72
  -9 -16  -3   75.44   69.30
   9 -16   3    2.77    2.80
   9 -16   3    7.11   21.59
  -9 -16  -3  -14.20   26.03
  -9 -16  -3   20.66   12.27
   9  16  -3   -0.91    3.64
   9  16  -3    1.14   25.26
  -9 -16  -3    0.11    1.22
  -9 -16  -3    3.20    2.32
  -9  16  -3  -18.02   13.84
  -9 -16   3   -2.10   21.11
  -9 -16   3    0.46    1.40
   9 -16  -3   -1.94    3.78
  -9 -16   3   12.05    6.72
   9 -16  -3    0.13    5.09
  -9 -16  -4   13.20    8.46
  -9 -16  -4    0.26    2.29
   9  16  -4  -14.84   28.79
   9 -16   4    2.69    2.88
  -9 -16  -4    0.59    1.45
   9  16  -4   -0.20    4.73
  -9 -16  -4   -8.82   27.75
   9 -16  -4   -5.13   18.28
  -9 -16   4   10.38   10.08
  -9  16  -4    4.33   16.16
  -9 -16   4    2.88   21.97
  -9 -16   4   -0.48    1.26
   9 -16  -4    1.42   15.48
  10 -16   0   57.15   10.21
 -10 -16   0   62.61   18.89
  10  16   0   39.41   12.52
  10  16  -1  -27.98   29.30
   0 -17   0   -1.78   13.26
   0  17   0   -3.56    9.73
   0  17   0    9.35    5.42
   0 -17   0   10.11    4.82
   0 -17   1   11.74    8.92
   0 -17  -1   -4.47   12.00
   0  17   1    2.96    2.79
   0  17  -1   -5.17   12.81
   0 -17  -1    3.80    3.15
   0 -17   1    1.44    2.16
   0  17  -1   10.80    4.09
   0  17   1    2.96   13.14
   0 -17   2    1.87    9.57
   0 -17  -2    7.10   13.63
   0  17   2  -15.09    9.27
   0  17  -2   -1.07   11.40
   0 -17  -2   -1.46    4.19
   0 -17   2    9.40    3.23
   0  17  -2    0.16    3.18
   0  17  -3   -1.92    3.46
   0 -17   3   -0.90    6.63
   0 -17   3    4.03    3.10
   0 -17  -3   -0.38    5.53
   0 -17  -3    3.87    3.55
   0  17  -3    6.65   18.28
   0 -17  -3    5.07   14.79
   0 -17   4    4.67    3.05
   0 -17   4   11.92   14.74
   0 -17  -4    2.49   13.83
   0 -17  -4    0.31    6.24
   0 -17  -4    8.51    4.08
   0 -17  -4  -11.64   38.20
   0  17  -4    3.73    4.53
   0  17  -4    0.64   11.34
   0 -17  -5   -0.56    5.94
   0 -17  -5  -58.37   37.92
   0  17  -5    9.55   18.35
   0 -17   5    5.42   16.34
   0  17  -5   -0.85    3.90
   0 -17  -5   -6.06   15.91
   0 -17   5   11.06    3.58
   0 -17  -5   13.14    5.60
   0 -17  -6  -33.17   37.30
   0  17  -6   20.15   15.22
   0 -17  -6   32.11   22.55
   0 -17   6  -22.26   16.13
   0  17  -6   -4.18    2.89
   0 -17  -6    8.71    3.34
   0 -17  -7    5.87    4.94
   0  17  -7  -11.82   27.50
   0 -17   7   19.52   24.11
   0 -17  -7    9.78   41.40
   0 -17  -7   13.21   21.57
   0 -17  -7   -1.36    3.34
   0  17  -7   -1.93    3.36
   0  17  -8   -3.23    3.67
   0 -17  -8  -30.51   24.08
   0 -17  -8    7.17   48.40
   0 -17  -8    1.48    3.53
   0 -17   8  -10.63   26.59
   0  17  -8   -4.12   19.41
   0 -17  -8    2.69    4.17
   0 -17  -9   34.88   44.47
   0 -17   9    8.99   31.97
   0  17  -9  -27.96   23.97
   0 -17  -9   55.00   55.46
   1 -17   0  220.68   32.55
  -1 -17   0  149.34   27.47
  -1  17   0  120.27   22.57
   1  17   0  130.08   25.69
  -1  17   0  209.19   32.79
   1  17   0  132.47   21.04
   1 -17   1  465.81   57.14
  -1  17   1  339.87   62.14
   1 -17   1  506.77   63.44
   1  17  -1  375.34   62.70
  -1 -17   1  477.43   63.80
  -1 -17   1  523.79   57.22
  -1  17  -1  353.69   61.91
   1 -17  -1  474.34   58.50
   1  17   1  424.00   63.94
   1 -17  -1  484.65   64.35
  -1 -17  -2  142.13   18.68
   1 -17   2  128.74   16.31
   1  17  -2  117.36   20.26
   1 -17   2  102.25   24.15
  -1 -17  -2  119.36   18.58
  -1  17   2   69.74   21.64
  -1 -17  -2  109.16   28.43
   1  17  -2  174.41   34.55
   1 -17  -2  151.33   26.28
  -1  17  -2   79.56   18.17
  -1 -17   2  115.60   24.64
   1  17   2   89.93   24.68
   1 -17  -2  141.37   22.83
  -1  17  -2  117.32   25.63
  -1 -17   2  113.98   16.18
  -1 -17  -3  433.18   55.58
   1  17  -3  350.75   58.35
  -1 -17  -3  392.81   62.85
  -1 -17  -3  402.74   54.47
   1 -17   3  477.81   52.39
   1  17  -3  385.35   52.96
   1 -17  -3  441.13   62.33
   1 -17  -3  318.45   76.88
  -1 -17   3  442.65   52.15
  -1  17  -3  340.27   52.64
   1 -17  -3  450.86   55.81
  -1  17  -3  411.09   58.79
  -1 -17   3  431.88   60.43
   1  17  -4  117.72   27.50
  -1 -17  -4  167.05   22.74
  -1 -17  -4  166.45   36.51
   1 -17   4  101.61   27.95
  -1 -17  -4  218.91   33.76
   1 -17   4  141.43   19.68
  -1 -17  -4  165.33   57.82
   1  17  -4  145.81   20.56
  -1  17  -4  117.99   20.12
   1 -17  -4  103.77   28.16
  -1  17  -4  123.12   25.83
   1 -17  -4  175.54   30.53
   1 -17  -4  146.05   21.30
   1 -17  -4  194.45   65.96
  -1 -17   4  188.62   35.36
  -1 -17   4  172.78   20.10
  -1 -17  -5  289.00   38.69
  -1 -17  -5  260.23   35.17
   1 -17   5  272.27   32.98
  -1 -17  -5  161.93   63.82
  -1 -17  -5  334.85   63.75
   1 -17   5  179.89   40.79
   1  17  -5  256.56   33.39
  -1  17  -5  197.68   39.17
  -1  17  -5  236.54   33.23
   1 -17  -5  272.57   34.02
   1 -17  -5  304.57   67.52
   1 -17  -5  213.98   36.20
  -1 -17   5  283.96   33.18
   1 -17  -5  151.21   41.58
  -1 -17   5  252.85   47.39
  -1 -17  -6   59.15   25.01
   1 -17   6   71.79   30.62
  -1 -17  -6  110.96   19.10
  -1 -17  -6   62.05   47.76
   1  17  -6   95.07   15.94
   1  17  -6   38.36   19.53
  -1 -17  -6  121.24   19.27
   1 -17  -6   44.86   25.61
  -1 -17   6   73.98   26.16
  -1  17  -6   98.40   24.79
  -1  17  -6   81.53   15.23
   1 -17  -6   89.05   13.58
   1 -17  -6   66.72   46.73
   1  17  -7   96.93   18.27
   1  17  -7   80.66   38.69
   1 -17   7   86.15   33.02
  -1 -17  -7   90.62   49.49
  -1 -17  -7  140.70   19.32
  -1 -17  -7  127.46   21.32
   1 -17  -7   50.35   46.17
  -1 -17   7  190.98   46.75
  -1  17  -7  107.20   18.79
  -1  17  -7   97.21   28.67
   1 -17  -7  115.84   31.52
   1 -17  -7  127.89   21.82
   1 -17   8   69.43   35.51
   1  17  -8   38.52   23.45
  -1 -17  -8   68.14   14.96
   1  17  -8   73.16   13.55
  -1 -17  -8   86.25   16.22
  -1 -17  -8   55.99   28.99
  -1 -17  -8  -16.31   52.71
  -1 -17   8   29.52   28.83
   1 -17  -8   45.04   74.43
  -1  17  -8   64.03   13.27
  -1  17  -8   41.83   23.49
   1 -17  -8    9.81   43.28
   1 -17  -8   67.11   14.72
  -1 -17  -9    5.87   58.14
   1  17  -9   60.76   12.58
   1  17  -9   51.82   28.09
  -1 -17  -9   49.66   35.71
  -1 -17  -9   77.76   15.29
  -1  17  -9   57.31   11.99
  -1  17  -9   46.61   27.38
  -1 -17   9   24.06   31.76
   1 -17  -9   59.05   13.94
   1 -17  -9   98.13   79.54
  -2 -17   0    3.86    2.75
  -2 -17   0   -3.40    9.86
   2  17   0    4.74    4.10
   2 -17   0    3.73    2.89
   2 -17   0    2.02    8.95
   2  17   0    6.87   11.22
  -2  17   0   -5.91    9.70
   2  17  -1    2.70    4.23
  -2 -17  -1    1.24    2.62
  -2 -17  -1    0.23    3.40
   2 -17   1   -9.00    7.56
  -2 -17  -1    6.61   12.25
   2  17  -1   11.04   10.96
  -2  17   1  -17.33   10.26
   2 -17   1   -2.71    2.52
   2  17   1   -8.91   10.41
   2 -17  -1    2.30   10.10
  -2 -17   1   -0.16   10.19
   2  17   1    8.85    3.64
  -2 -17   1    0.46    2.84
  -2  17  -1    6.46    3.00
   2 -17  -1   -1.08    3.64
  -2  17  -1   -1.50    9.39
   2  17  -2    3.18    4.99
  -2 -17  -2    3.45    4.79
   2 -17   2    5.85   10.12
   2  17  -2   15.78   16.29
  -2  17   2   -3.51    9.96
  -2 -17  -2   -4.92   10.07
  -2 -17  -2   10.97    4.47
   2 -17   2    0.70    2.44
  -2  17  -2   -9.17    9.37
   2 -17  -2   -0.73    4.49
  -2 -17   2    4.31    2.89
   2  17   2    1.23    1.86
  -2  17  -2    1.24    3.39
   2 -17  -2   10.09   13.07
  -2 -17   2   13.02   13.40
   2  17   2    1.03   12.18
   2 -17   3   -4.36    7.33
   2  17  -3   -9.17   11.06
  -2 -17  -3    0.57    4.77
  -2 -17  -3  -10.86   13.60
   2 -17   3   10.50    3.56
   2  17  -3    0.48    3.46
  -2 -17  -3    5.74    4.99
   2 -17  -3   -2.84   31.63
   2 -17  -3    2.57    6.73
  -2 -17   3    5.98   11.72
  -2  17  -3   16.62    9.51
  -2 -17   3    2.87    2.95
   2 -17  -3   19.27   13.65
  -2  17  -3    5.31    4.36
  -2 -17  -4   10.01    5.78
   2  17  -4    2.30   16.02
  -2 -17  -4    3.16    6.51
   2  17  -4   -0.36    4.05
   2 -17   4    4.81   13.58
  -2 -17  -4  -11.07   41.49
   2 -17   4    7.27    3.32
  -2 -17  -4   16.09   15.14
  -2 -17   4   -6.35   10.20
   2 -17  -4   10.18   14.49
   2 -17  -4  -13.21   34.82
   2 -17  -4    4.38    3.79
  -2  17  -4    2.63    3.76
  -2  17  -4   -1.67    8.51
   2 -17  -4   -4.36    4.06
  -2 -17   4   13.54    3.95
   2  17  -5   -1.27    3.37
  -2 -17  -5  -47.61   64.96
   2 -17   5   -9.77   15.45
  -2 -17  -5    7.34    6.98
   2  17  -5    3.09   24.51
  -2 -17  -5    8.74    4.84
  -2 -17  -5    1.23   27.36
  -2 -17   5    2.30   14.33
  -2  17  -5    0.23    4.21
   2 -17  -5    8.92    3.93
   2 -17  -5   -2.93    3.73
   2 -17  -5   23.73   17.65
  -2 -17   5    4.05    2.79
   2 -17  -5   16.31   33.92
  -2  17  -5    9.63   11.61
  -2 -17  -6    7.61    5.31
   2  17  -6   -2.25    3.68
  -2 -17  -6   -2.81   19.80
  -2 -17  -6  -75.87   41.49
   2 -17   6    2.25   19.71
  -2 -17  -6    9.59    4.64
   2  17  -6   24.30   16.55
  -2  17  -6    2.37    4.17
  -2 -17   6   31.00   17.19
  -2  17  -6   -1.05   14.71
   2 -17  -6   26.04   37.01
   2 -17  -6   17.95   19.39
   2  17  -7  -32.56   22.08
  -2 -17  -7    4.96    4.31
  -2 -17  -7   -0.09   49.28
   2  17  -7    2.30    4.33
  -2 -17  -7   16.56    5.47
   2 -17   7   17.94   23.43
  -2 -17  -7   -2.54   22.31
  -2  17  -7    3.99    4.43
   2 -17  -7    4.22    3.72
  -2  17  -7   14.63   18.43
   2 -17  -7    5.21   37.21
  -2 -17   7   14.56   42.07
   2 -17  -7    4.83   29.16
  -2 -17  -8   17.89    7.78
  -2 -17  -8   60.58   76.56
  -2 -17  -8   14.94    6.14
   2  17  -8  -12.21   22.59
  -2 -17  -8    1.52   27.22
   2  17  -8    3.35    4.67
   2 -17  -8   -5.32   43.70
  -2  17  -8   28.36   21.64
  -2 -17   8    7.61   38.13
   2 -17  -8    7.01    4.95
  -2  17  -8   -0.92    4.07
  -2 -17  -9   -2.76    3.82
  -2 -17  -9  -18.55   53.08
  -2 -17  -9  -14.22   30.97
   2  17  -9   -0.23    4.29
   2 -17   9  -45.45   49.29
   2  17  -9  -14.41   39.11
  -2 -17  -9    1.57    6.65
   2 -17  -9    0.64    5.03
  -2 -17   9  -56.37   46.22
  -2  17  -9   26.18   25.72
   2 -17  -9  -74.15   43.47
  -2  17  -9    0.12    3.97
   2 -17  -9  -31.38   23.63
  -3  17   0  185.90   34.44
  -3 -17   0  144.32   30.62
   3  17   0  273.31   48.23
  -3 -17   0  187.96   23.70
  -3 -17   0  150.07   25.94
   3 -17   0  186.19   33.69
   3  17   0  131.79   24.27
   3 -17   0  215.38   24.68
   3  17  -1  528.38   69.37
  -3 -17  -1  441.28   58.13
  -3 -17  -1  457.35   64.46
  -3  17   1  339.54   59.48
   3 -17   1  381.33   59.36
  -3 -17  -1  491.18   55.67
   3 -17   1  465.81   55.03
  -3 -17   1  452.30   54.53
   3 -17  -1  440.83   56.12
  -3  17  -1  343.29   59.68
  -3 -17   1  456.97   62.44
   3  17   1  374.76   62.26
   3 -17  -1  405.30   60.57
   3 -17   2  189.90   23.58
   3  17  -2  206.09   36.85
  -3 -17  -2  177.35   26.86
   3  17  -2  154.28   24.46
  -3 -17  -2  192.95   25.45
  -3 -17  -2  150.77   35.38
   3 -17   2  163.12   30.84
   3 -17  -2  169.66   25.29
  -3  17  -2  210.53   35.79
   3 -17  -2  220.30   36.93
   3  17   2  126.82   32.19
  -3 -17   2  176.90   33.75
  -3 -17   2  170.51   23.28
   3  17  -3  304.39   42.43
   3  17  -3  421.51   65.21
  -3 -17  -3  248.57   51.29
  -3 -17  -3  331.14   45.12
   3 -17   3  275.13   48.04
   3 -17  -3  290.24   43.92
  -3 -17   3  455.71   55.90
   3 -17  -3  345.32   51.47
  -3  17  -3  319.02   48.12
  -3 -17   3  370.35   41.66
   3 -17  -3  192.56   66.49
  -3 -17  -4  163.46   25.77
   3  17  -4   43.27   20.60
  -3 -17  -4  102.16   49.41
  -3 -17  -4  127.25   21.75
  -3 -17  -4  165.60   40.56
   3 -17   4   97.27   13.08
   3 -17   4   55.21   22.35
   3  17  -4  103.32   16.77
   3 -17  -4   87.84   19.21
  -3 -17   4   59.67   21.97
  -3 -17   4   87.95   13.10
   3 -17  -4   59.14   44.21
   3 -17  -4  106.80   26.28
  -3  17  -4   65.82   14.55
  -3  17  -4   88.60   21.65
  -3 -17  -5  103.15   31.33
   3  17  -5  154.01   21.15
   3 -17   5  182.85   21.68
  -3 -17  -5   44.51   53.11
   3 -17   5  132.85   32.73
  -3 -17  -5  156.07   24.26
  -3 -17   5  182.08   41.72
   3 -17  -5  108.04   26.13
   3 -17  -5  127.13   49.70
  -3 -17   5  158.14   20.73
   3 -17  -5  133.03   31.51
  -3  17  -5  157.42   30.88
  -3  17  -5  136.90   20.71
  -3 -17  -6   73.88   15.01
  -3 -17  -6  118.98   35.86
  -3 -17  -6   96.83   19.70
  -3 -17  -6  110.57   56.51
   3 -17   6   52.10   24.37
   3  17  -6   55.76   22.09
   3  17  -6   80.97   14.54
  -3 -17   6   60.03   22.86
   3 -17  -6   58.24   25.31
  -3  17  -6   50.67   19.66
   3 -17  -6   91.98   38.77
  -3  17  -6   65.23   13.42
  -3 -17  -7  164.50   26.28
  -3 -17  -7  109.67   20.13
   3  17  -7  107.50   29.29
  -3 -17  -7  129.17   64.24
  -3 -17  -7  131.57   42.50
   3  17  -7   94.16   17.22
   3 -17  -7  127.53   20.32
  -3 -17   7   60.15   31.65
  -3  17  -7  104.45   15.45
   3 -17  -7   53.05   42.26
  -3  17  -7   42.96   22.75
   3 -17   8    9.08   30.43
  -3 -17  -8   -5.23   28.56
  -3 -17  -8   28.66   57.46
   3  17  -8   27.33    7.61
   3  17  -8   -6.66   22.06
  -3 -17  -8   26.97    8.79
   3 -17  -8  -18.77   41.02
  -3  17  -8    4.24   20.93
  -3 -17   8   -5.41   27.15
   3 -17  -8    7.58   23.57
  -3 -17  -9   74.50   48.42
  -3 -17  -9   21.87    9.41
  -3 -17  -9   26.93   11.30
   3  17  -9   30.57   31.60
   3 -17   9  -54.67   38.15
  -3 -17  -9   86.95   61.92
   3  17  -9   39.95    9.40
  -3  17  -9   33.95    8.69
   3 -17  -9   -9.57   28.41
  -3  17  -9   57.42   26.55
   3 -17  -9   28.82   46.43
   3 -17  -9   46.98   10.67
  -3 -17   9    0.62   36.15
  -4 -17   0   -1.71    4.26
  -4  17   0   -1.02   11.41
  -4 -17   0    3.84    3.71
   4 -17   0    5.92    4.19
  -4 -17   0   -6.54    9.47
   4  17   0   10.94    4.30
   4  17   0    4.82   13.16
   4 -17   0   -5.36    9.60
   4 -17   1    7.71    3.02
   4  17  -1   14.29   13.98
   4  17  -1    3.59    4.63
   4 -17   1  -12.12    8.76
  -4 -17  -1   12.27    3.91
  -4  17   1    5.27   10.83
  -4 -17  -1   -1.67    3.85
  -4 -17  -1   20.19   15.95
   4 -17  -1  -20.51   10.52
  -4 -17   1    7.87    3.60
   4 -17  -1    1.08    3.98
  -4  17  -1   22.37   12.03
  -4 -17   1  -17.11    8.60
  -4 -17   1    2.09    4.31
   4  17   1   20.11   14.27
   4  17  -2    0.75   12.42
   4 -17   2   -0.57    8.65
   4 -17   2    1.93    3.08
  -4 -17  -2   16.25    5.07
  -4 -17  -2    0.64    4.23
   4  17  -2   -2.28    3.35
  -4 -17  -2   -4.00   13.55
   4  17   2   -0.75   13.48
  -4 -17   2    2.82    2.64
   4 -17  -2    1.95    5.28
  -4 -17   2    5.46    5.44
   4  17   2    7.75    4.17
   4 -17  -2    7.23   11.57
  -4 -17   2   -0.21   11.82
  -4  17  -2    3.36   11.85
  -4 -17  -3    5.10    5.61
  -4 -17  -3  -11.37   21.97
   4  17  -3  -15.25   13.45
  -4 -17  -3   11.65    4.59
   4  17  -3    0.71    3.63
   4 -17   3    9.35    3.65
   4 -17   3   11.40   12.63
   4 -17  -3  -18.10   31.25
   4 -17  -3   14.65   14.34
  -4 -17   3    9.23    8.46
   4 -17  -3   -1.25    4.27
  -4  17  -3    8.52   10.78
  -4  17  -3    1.02    2.79
  -4 -17   3    1.71    2.88
   4 -17   4   13.47    3.56
   4  17  -4   -0.76    3.29
  -4 -17  -4    9.87    5.32
  -4 -17  -4   15.35    7.68
   4  17  -4   -1.08   12.92
  -4 -17  -4  -33.47   19.75
   4 -17   4   -5.75   14.10
  -4 -17  -4  -12.70   49.20
  -4  17  -4    2.65   10.45
   4 -17  -4    3.90   14.48
   4 -17  -4  -33.53   30.23
  -4 -17   4  -14.91   11.60
  -4  17  -4    4.92    3.40
   4 -17  -4   -1.36    4.70
  -4 -17   4   11.59    3.95
  -4 -17  -5    2.48    4.63
   4  17  -5   -6.38   15.19
  -4 -17  -5   -5.14   21.87
   4  17  -5    4.15    4.47
   4 -17   5    8.92   18.40
  -4 -17  -5  -29.91   48.16
  -4 -17  -5   17.96    7.94
   4 -17  -5    0.73   16.22
  -4 -17   5    2.14   13.78
   4 -17  -5   -6.17   30.83
  -4 -17   5    0.71    2.47
  -4  17  -5    0.10   12.84
  -4  17  -5    0.32    2.85
  -4 -17  -6    9.32    4.49
  -4 -17  -6   -7.36   20.42
   4  17  -6   17.89   21.27
  -4 -17  -6    6.69   50.06
   4  17  -6    3.63    4.72
  -4 -17  -6   11.29    5.26
   4 -17  -6  -25.01   30.10
  -4  17  -6    0.41   15.71
  -4 -17   6   -1.23   20.03
  -4  17  -6    1.77    3.61
  -4 -17  -7    4.83   25.36
   4  17  -7   -5.34   23.15
  -4 -17  -7   38.86   48.87
   4 -17   7    3.00   25.86
  -4 -17  -7    4.03    4.58
  -4 -17  -7   -3.65    5.72
   4  17  -7   -2.82    3.25
   4 -17  -7   -5.35   31.97
  -4  17  -7  -23.03   16.80
   4 -17  -7  -37.92   20.07
  -4 -17   7    3.69   19.77
   4 -17  -7    1.96    3.03
  -4  17  -7    2.56    4.44
   4  17  -8    0.44    3.65
  -4 -17  -8   10.41    6.13
  -4 -17  -8   27.45   32.46
   4  17  -8  -22.29   21.46
  -4 -17  -8  -33.85   55.56
  -4 -17  -8   11.35    5.34
   4 -17   8  -35.31   32.58
   4 -17  -8  -25.35   37.33
  -4 -17   8   40.95   34.86
  -4  17  -8    5.35    5.06
   4 -17  -8   12.28    5.69
   4 -17  -8    4.58   25.56
  -4  17  -8   10.21   22.82
   5  17   0  143.96   27.14
  -5 -17   0  118.31   29.18
   5 -17   0  192.77   23.51
  -5  17   0  122.34   30.06
   5 -17   0  160.36   29.22
  -5 -17   0  183.23   22.55
  -5 -17   0  182.57   32.08
   5 -17   1  255.96   40.89
   5 -17   1  304.38   35.91
  -5 -17  -1  280.55   40.41
   5  17  -1  211.65   36.61
  -5 -17  -1  326.97   53.92
   5  17  -1  242.73   45.28
  -5 -17  -1  329.55   36.04
  -5 -17   1  253.87   46.76
  -5 -17   1  312.27   35.50
   5 -17  -1  270.08   36.86
  -5  17  -1  193.96   41.24
   5 -17  -1  284.48   41.76
  -5 -17   1  255.03   39.48
   5  17   1  232.18   47.39
  -5 -17  -2  202.64   22.05
   5  17  -2   97.38   29.09
   5 -17   2  181.93   20.76
   5  17  -2  143.89   21.87
  -5 -17  -2  117.39   30.80
  -5 -17  -2  174.35   30.94
   5 -17   2  138.02   27.89
  -5 -17   2  158.29   20.44
  -5 -17   2  145.98   29.45
   5 -17  -2   87.74   41.50
  -5  17  -2   97.12   27.87
   5 -17  -2  129.15   31.42
   5  17   2   94.74   30.00
   5 -17  -2  144.39   25.69
   5  17  -3  133.40   21.17
   5 -17   3   86.86   26.32
   5 -17   3  190.59   20.69
  -5 -17  -3  224.99   96.07
  -5 -17  -3   80.17   31.67
  -5 -17  -3  195.69   22.71
  -5 -17  -3  159.96   29.00
   5  17  -3  123.05   30.30
   5 -17  -3  156.22   43.86
  -5 -17   3  157.67   30.36
  -5  17  -3  119.86   27.69
   5 -17  -3  149.20   25.97
  -5 -17   3  114.83   28.55
  -5 -17   3  153.79   20.23
   5 -17   4  101.16   11.82
  -5 -17  -4  114.85   18.64
  -5 -17  -4   81.08   14.54
   5  17  -4   49.79   21.60
  -5 -17  -4   65.91   53.30
  -5 -17  -4   96.03   39.63
  -5 -17  -4   99.68   22.89
   5 -17   4   67.38   27.65
   5  17  -4   91.35   15.11
   5 -17  -4  164.49   43.52
  -5 -17   4   49.96   21.49
  -5  17  -4   53.28   18.91
  -5  17  -4   52.21   12.07
   5 -17  -4   42.36   15.07
  -5 -17   4   83.98   11.57
  -5 -17   4   61.67   16.10
   5  17  -5   47.50   22.39
  -5 -17  -5   54.63   29.63
  -5 -17  -5   87.04   56.88
   5  17  -5  102.38   15.62
  -5 -17  -5  138.96   25.10
  -5 -17  -5  119.89   19.16
   5 -17  -5  139.76   43.80
  -5 -17   5  136.95   15.51
  -5  17  -5   82.44   16.08
  -5 -17   5   71.93   28.31
  -5 -17   5  108.31   21.72
  -5  17  -5  103.67   24.87
   5 -17  -5   66.10   32.14
  -5 -17  -6   42.03   10.11
  -5 -17  -6   64.75   17.34
  -5 -17  -6   81.15   61.52
   5  17  -6   27.39    8.62
   5 -17   6  -12.04   23.18
  -5 -17  -6   50.36   34.95
   5  17  -6    9.15   18.14
  -5  17  -6   35.77    8.36
  -5  17  -6   33.27   17.14
   5 -17  -6   11.65   21.82
  -5 -17   6    2.19   20.22
   5 -17  -6   16.62   33.57
   5  17  -7   52.33   10.57
  -5 -17  -7   51.11   11.87
  -5 -17  -7   40.04   36.08
   5  17  -7   22.40   19.60
  -5 -17  -7  190.18   71.62
  -5 -17  -7   55.78   17.22
   5 -17   7   45.21   31.80
  -5  17  -7   35.53   21.61
   5 -17  -7   78.45   39.75
   5 -17  -7   50.62   11.24
   5 -17  -7   21.73   23.30
  -5  17  -7   41.35    9.82
  -5 -17   7   -7.91   30.05
  -5 -17  -8    3.37   56.95
  -5 -17  -8   44.80    9.97
  -5 -17  -8   24.49   14.54
   5  17  -8   19.63   27.28
   5  17  -8   44.09    9.75
   5 -17   8  -11.09   37.70
  -5 -17  -8    5.82   35.55
   5 -17  -8   33.71    9.79
  -5  17  -8   -1.28   23.10
  -5 -17   8   15.07   27.20
  -5  17  -8   24.83    7.98
   5 -17  -8   30.11   27.13
   5 -17  -8   42.54   46.10
  -6 -17   0   11.36    2.92
   6 -17   0    3.23    2.88
  -6 -17   0    8.20    5.96
  -6  17   0   -4.65   11.33
   6  17   0    7.04   17.12
  -6 -17   0  -13.11   10.02
   6  17   0    7.33    5.02
   6  17  -1    6.08    5.35
   6 -17   1   11.38    3.57
  -6 -17  -1   14.28    8.01
  -6 -17  -1    8.94    3.21
  -6 -17  -1  -10.98   13.15
   6  17  -1  -14.17   15.91
  -6 -17   1    8.24    5.70
   6  17   1   -1.14    2.49
  -6 -17   1   -7.66   12.94
   6 -17  -1    0.37    3.77
  -6  17  -1    6.79   10.99
   6  17   1   -2.03   16.63
  -6 -17   1    3.43    2.80
   6 -17   2    8.18    3.20
  -6 -17  -2   12.01    4.05
  -6 -17  -2    7.27    7.07
  -6 -17  -2    8.21   17.85
   6  17  -2    5.99   17.74
   6  17  -2    7.53    5.53
  -6 -17   2   14.55    8.23
   6  17   2   13.07    5.48
  -6 -17   2    4.69    2.89
   6 -17  -2    4.65    4.68
  -6 -17   2  -14.75   12.77
   6 -17  -2    2.08    5.72
   6 -17  -2    9.44   32.09
  -6  17  -2  -11.35   10.31
  -6 -17  -3   13.98    4.75
  -6 -17  -3    4.32    4.85
  -6 -17  -3   23.05   53.71
   6  17  -3   22.56   18.92
   6  17  -3   -4.10    3.71
  -6 -17  -3   -4.79   21.22
  -6 -17  -3    6.56    3.31
   6 -17   3    6.99    3.15
  -6 -17   3   -9.66   12.22
  -6 -17   3    8.78    6.75
  -6 -17   3    5.16    2.73
   6 -17  -3   -7.50   31.18
   6 -17  -3    6.74    5.85
   6 -17  -3    4.35    5.94
  -6  17  -3  -11.03   12.40
   6  17  -4    4.87    4.74
  -6 -17  -4    0.52   59.55
  -6 -17  -4   21.52    6.69
  -6 -17  -4    5.97    4.76
   6  17  -4    1.44   18.58
   6 -17   4   14.91    3.67
  -6 -17  -4    6.28    4.20
  -6 -17  -4    9.59   20.17
   6 -17  -4   -9.45   30.37
  -6 -17   4    8.56   18.96
   6 -17  -4    7.95    7.04
  -6 -17   4   10.78    5.44
  -6 -17   4    3.59    3.40
  -6  17  -4    4.34   12.55
   6  17  -5    3.38   18.02
   6  17  -5   -2.80    3.35
  -6 -17  -5   10.04    5.61
  -6 -17  -5    6.64   34.22
   6 -17   5    0.11   20.76
  -6 -17  -5   -0.05    3.93
  -6 -17  -5   -4.36    3.99
  -6 -17  -5  -42.59   56.82
   6 -17  -5    4.03   17.74
  -6  17  -5   -6.41   14.29
  -6 -17   5   -8.89   16.13
  -6 -17   5    8.51    6.09
   6 -17  -5    6.82   26.88
  -6 -17   5   11.36    4.51
  -6 -17  -6   10.48    4.52
   6  17  -6  -13.06   18.38
  -6 -17  -6   -8.68   62.33
  -6 -17  -6    5.43    8.63
  -6 -17  -6    7.34   35.18
   6  17  -6   -0.24    3.96
   6 -17   6    1.28   28.70
  -6 -17   6    4.95   20.56
   6 -17  -6   10.99   21.42
   6 -17  -6   -6.68   33.24
  -6  17  -6    2.17    2.32
  -6  17  -6   23.39   17.33
  -6 -17   6    9.41    5.16
  -6 -17  -7  -11.52   40.04
  -6 -17  -7    4.15    6.94
   6  17  -7  -41.59   20.31
  -6 -17  -7  -67.27   58.21
   6  17  -7   -0.25    4.24
  -6 -17  -7    1.86    3.99
   6 -17   7   -8.44   33.29
  -6 -17   7    0.97    6.09
   6 -17  -7   -6.38   36.80
   6 -17  -7    4.55   24.23
  -6  17  -7   -0.82    2.95
  -6  17  -7   20.15   20.82
   6 -17  -7    1.33    4.26
  -6 -17   7   36.41   32.92
   7 -17   0   62.50   11.85
   7 -17   0   31.00   15.23
  -7 -17   0   66.34   18.87
  -7 -17   0   67.55    9.13
   7  17   0   47.47   23.42
   7 -17   0   51.26   16.53
   7  17   0   51.73   12.78
  -7 -17  -1  134.54   28.13
   7 -17   1   88.32   24.04
   7  17  -1  102.41   20.51
  -7 -17  -1  135.70   16.78
   7 -17   1  147.90   17.41
   7  17  -1  115.10   30.47
   7 -17  -1  110.54   23.81
   7 -17  -1  129.82   18.45
  -7 -17   1  118.28   25.56
   7 -17  -1   47.64   37.43
  -7 -17   1  119.89   16.57
   7 -17  -1  155.03   27.74
   7  17   1   75.20   28.24
   7  17   1   89.36   21.57
   7  17  -2   88.19   17.24
   7 -17   2  103.94   13.29
  -7 -17  -2  152.51   28.15
   7  17  -2   86.07   28.41
  -7 -17  -2   93.41   15.78
  -7 -17  -2   92.24   30.10
   7 -17   2   81.22   24.08
  -7 -17  -2  103.80   13.35
  -7 -17   2   63.89   19.42
   7  17   2   50.34   16.76
   7 -17  -2   69.14   19.86
  -7 -17   2   95.26   13.00
   7 -17  -2  104.20   18.58
   7 -17  -2  100.08   39.88
  -7  17  -2   49.06   19.61
   7 -17  -2   86.03   19.67
  -7 -17  -3  104.71   15.89
  -7 -17  -3  118.27   15.71
  -7 -17  -3  112.20   28.25
  -7 -17  -3   50.00   64.76
   7  17  -3  116.81   19.74
   7 -17   3   66.79   26.28
  -7 -17  -3   86.30   34.57
   7 -17   3  119.86   15.13
   7 -17  -3  120.92   21.72
   7 -17  -3   64.94   18.00
   7 -17  -3   90.15   23.61
  -7 -17   3  119.58   15.16
  -7 -17   3  114.79   26.65
  -7  17  -3   64.41   22.86
   7 -17  -3   72.08   35.58
  -7 -17  -4   34.40    8.16
  -7 -17  -4   58.01   15.29
   7  17  -4   42.75   24.17
  -7 -17  -4    4.52   19.82
   7 -17   4   41.53    7.69
  -7 -17  -4 -146.60   62.54
   7 -17   4   11.01   21.09
   7  17  -4   35.70    8.93
   7 -17  -4   25.25   17.42
  -7  17  -4   11.63   14.73
  -7 -17   4   13.00   22.34
   7 -17  -4   20.21   28.46
  -7 -17   4   38.54    8.06
   7 -17  -4   17.71    9.38
  -7 -17   4   25.86   13.66
  -7 -17  -5   81.88   20.51
   7 -17   5    7.63   27.49
   7  17  -5   47.90   26.67
  -7 -17  -5   54.33   10.43
  -7 -17  -5   -9.25   64.72
  -7 -17  -5  -11.99   37.43
  -7 -17  -5   67.62   12.75
   7  17  -5   51.76   11.38
   7 -17  -5   21.80   30.49
  -7  17  -5    5.01   18.50
  -7 -17   5   40.86    9.72
   7 -17  -5   64.14   23.98
  -7 -17   5    6.77   21.68
  -7 -17   5   90.30   21.42
   7  17  -6   20.62   26.72
   7  17  -6   45.90    9.83
  -7 -17  -6   23.25   69.37
  -7 -17  -6   27.43    7.89
  -7 -17  -6  -34.12   43.09
   7 -17   6   -3.78   33.41
  -7 -17  -6   42.38   15.93
  -7  17  -6   15.66   20.18
  -7 -17   6   36.43   13.28
   7 -17  -6   44.43   34.66
   7 -17  -6  -32.15   24.53
  -7 -17   6   42.92    9.10
  -7 -17   6   15.96   27.34
   8  17   0    5.95   22.10
  -8 -17   0    2.99   13.82
   8 -17   0   -1.70   13.48
   8  17   0    7.89    4.93
  -8 -17   0    8.16    3.37
   8 -17   0    3.64    3.90
   8 -17   0   -9.04   31.01
  -8 -17   0   12.86    7.67
   8 -17   1    5.81    3.15
  -8 -17  -1    6.84    3.50
   8  17  -1    9.95    5.40
  -8 -17  -1    7.07   14.13
   8  17  -1    7.21   21.71
  -8 -17  -1   13.62    7.06
   8 -17   1   -6.40   15.37
  -8 -17  -1    2.01    2.66
   8 -17  -1    1.07    4.44
   8 -17  -1    9.90   12.43
   8  17   1   10.90    5.32
  -8 -17   1   12.18   15.88
   8 -17  -1   14.29   28.88
   8 -17  -1    3.19    7.77
  -8 -17   1    8.53    3.24
  -8 -17   1   15.35    6.64
  -8 -17  -2   11.13    6.14
  -8 -17  -2   16.14    3.54
  -8 -17  -2   11.88    4.17
   8 -17   2   -3.27   17.72
  -8 -17  -2  -47.30   59.85
   8 -17   2    7.33    3.30
   8  17  -2    3.10    5.09
  -8 -17  -2  -10.96   20.85
   8  17  -2    2.24   22.01
   8 -17  -2   35.30   27.37
  -8 -17   2   -2.76   16.77
   8 -17  -2    0.98    4.99
   8 -17  -2    2.42    5.98
  -8 -17   2    4.43    3.08
  -8 -17   2   21.01   10.03
   8  17   2    2.19    4.90
   8 -17  -2  -18.07   12.59
  -8  17  -2   -7.41   13.55
  -8 -17  -3   -2.07    6.61
   8 -17   3    1.19    2.87
  -8 -17  -3    5.59    3.75
   8  17  -3   -0.12    4.21
  -8 -17  -3   32.01   24.88
  -8 -17  -3   47.70   64.28
   8 -17   3  -16.54   20.34
   8  17  -3  -21.97   23.22
  -8 -17  -3    6.23    3.17
  -8 -17   3    2.89    3.34
   8 -17  -3  -21.69   13.84
   8 -17  -3   27.19   24.63
   8 -17  -3   -1.86    4.45
  -8 -17   3   -4.10    5.61
  -8  17  -3   -1.72   13.97
  -8 -17   3   11.69   21.39
   8 -17  -3    2.53    5.73
   8 -17   4    1.38   22.87
   8  17  -4   -2.44    3.37
   8 -17   4    1.91    4.61
  -8 -17  -4    8.77    3.34
  -8 -17  -4   -1.54   66.21
  -8 -17  -4    5.94    6.51
   8  17  -4   30.59   27.86
  -8 -17  -4    5.10    3.79
  -8 -17  -4   26.85   42.61
   8 -17  -4    4.50    5.99
  -8 -17   4    5.08   19.00
  -8 -17   4    8.88    4.08
   8 -17  -4    3.92    4.26
  -8  17  -4   -0.59   17.28
  -8 -17   4    7.39    7.07
   8 -17  -4  -75.05   22.59
   8  17  -5   -6.03    2.79
   8  17  -5  -32.03   26.26
  -8 -17  -5    7.89   10.77
  -8 -17  -5   -3.98    4.02
  -8 -17  -5    0.09    3.06
  -8 -17  -5    7.97   66.32
   8 -17  -5  -29.00   27.00
  -8 -17   5  -15.21   20.38
  -8 -17   5    0.15    2.88
  -8 -17   5   18.19    8.93
   9  17   0   42.17   28.34
   9  17   0   21.73   10.54
  -9 -17   0   54.80   18.67
  -9 -17   0    1.92   20.87
   9 -17   0   41.80    8.58
  -9 -17   0   40.97    7.07
   9  17  -1   51.60   13.95
  -9 -17  -1   -2.63   18.44
  -9 -17  -1   82.48   21.93
   9 -17   1   80.20    9.76
  -9 -17  -1   58.98    8.39
   9  17  -1   60.93   31.56
  -9 -17   1   24.86   19.82
   9  17   1   25.87   12.15
   9 -17  -1   82.45   13.62
  -9 -17   1   49.94    8.95
  -9 -17   1   42.81   14.46
  -9 -17  -2  175.02   75.68
  -9 -17  -2    9.85   10.33
   9  17  -2   16.33   26.92
   9  17  -2   21.27    8.05
  -9 -17  -2  -42.49   23.83
  -9 -17  -2   29.40    5.31
   9 -17   2   26.98    6.22
   9 -17   2  -16.60   19.21
  -9 -17   2    7.11   18.86
  -9 -17   2   42.66   17.00
   9 -17  -2   13.82    7.36
   9  17   2   14.08    9.15
   9 -17  -2   12.24    9.88
   9  17  -3   27.03   29.82
  -9 -17  -3  -11.87   27.90
  -9 -17  -3   26.31   15.04
   9 -17   3   56.86   24.97
   9  17  -3   43.22   11.76
  -9 -17  -3   40.69    7.47
  -9 -17  -3   -8.17   82.99
   9 -17   3   59.07    9.12
   9 -17  -3   36.46   11.05
  -9  17  -3   44.28   17.90
   9 -17  -3   32.22   10.62
  -9 -17   3   57.26   17.36
  -9 -17   3  -27.15   22.79
   0 -18   0  624.03   70.29
   0 -18   0  488.22   75.50
   0  18   0  489.62   75.91
   0  18  -1  139.26   21.21
   0  18   1  111.06   23.28
   0 -18   1  278.37   41.53
   0  18  -1  138.60   28.46
   0  18   1  175.37   30.18
   0 -18  -1  171.17   31.43
   0 -18  -2  153.32   21.20
   0  18  -2  111.07   19.41
   0  18   2  184.02   42.31
   0 -18  -2  139.63   30.46
   0 -18   2  143.34   18.67
   0 -18   2  107.24   26.32
   0  18  -2  174.62   32.26
   0  18  -3   92.27   17.44
   0 -18   3   98.01   14.32
   0  18  -3  149.47   36.78
   0 -18  -3  115.72   28.24
   0 -18  -3   97.14   19.01
   0 -18   3   83.32   23.74
   0 -18  -3  152.04   25.29
   0 -18  -4  237.93   68.01
   0 -18  -4  195.76   29.98
   0 -18   4  232.50   26.37
   0 -18  -4  199.52   28.27
   0 -18  -4  148.43   36.79
   0  18  -4  214.72   39.30
   0  18  -4  160.90   26.60
   0 -18  -5   76.77   32.11
   0  18  -5   94.00   16.73
   0 -18  -5  193.21   69.17
   0 -18  -5  117.19   16.19
   0 -18   5   65.22   24.55
   0  18  -5   65.55   19.98
   0  18  -6  106.01   16.26
   0 -18  -6   97.17   55.17
   0 -18  -6  110.63   17.07
   0 -18   6  136.87   46.65
   0  18  -6   84.93   25.69
   0 -18  -6  116.46   33.29
   0 -18   7   80.10   32.61
   0  18  -7   34.75   20.56
   0 -18  -7   42.23   11.31
   0 -18  -7   48.57   11.65
   0 -18  -7   29.53   27.34
   0 -18  -7   -1.84   42.02
   0  18  -7   51.63   10.69
   0 -18  -8   -5.82   34.51
   0 -18  -8  -16.49   52.90
   0 -18   8   12.51   31.08
   0  18  -8   34.77   23.98
   0  18  -9   35.32    8.47
   0 -18  -9   15.86    8.36
   0  18  -9   89.20   37.53
   0 -18  -9   40.56   59.43
   0 -18   9   15.30   33.77
  -1  18   0    2.14    2.75
   1  18   0  -12.42    9.74
   1 -18   0  -23.52    9.61
   1  18   0    2.98    3.91
  -1  18   0  -15.31   10.08
  -1 -18   0   -5.01   19.75
  -1 -18   0    7.13    3.56
   1 -18   0   10.47    4.54
   1 -18   1  -14.42    7.13
  -1 -18  -1   -1.20   12.89
   1  18  -1    7.12   11.49
  -1 -18  -1    8.58    4.50
   1  18  -1    4.96    4.47
   1 -18   1   -1.41    2.90
  -1  18   1    0.32   17.11
  -1  18  -1   10.95   21.55
  -1 -18   1    2.14    2.84
   1 -18  -1    4.29   15.83
  -1  18  -1    3.66    4.15
   1  18   1    5.32    3.86
  -1 -18   1  -18.90    7.43
   1 -18  -1    7.11    4.92
   1  18   1   -0.36   11.49
   1  18  -2   -2.99    3.50
  -1  18   2   -0.73   21.65
   1 -18   2   -6.15    9.93
   1 -18   2    6.31    3.34
   1  18  -2    6.73   11.25
  -1 -18  -2    2.09    3.26
  -1 -18  -2    5.98   14.20
  -1 -18  -2   10.12    5.67
   1  18   2   33.27   16.01
  -1  18  -2    4.37   12.67
  -1  18  -2    5.75    4.76
  -1 -18   2    6.95    3.15
  -1 -18   2   -3.02    9.05
   1 -18  -2   -0.64    4.77
   1 -18  -2   12.22   12.82
  -1 -18  -3    5.01    5.99
   1  18  -3   -2.98    3.05
   1 -18   3   10.00    9.26
   1 -18   3    5.56    2.59
   1  18  -3   13.47   12.89
  -1 -18  -3    5.71    4.76
  -1 -18  -3   10.63   15.30
  -1  18  -3  -12.36   10.55
   1 -18  -3  -14.23   13.73
  -1  18  -3    0.57    4.27
  -1 -18   3   -0.73   14.39
   1 -18  -3   -0.60    6.13
  -1 -18   3    3.49    3.12
  -1 -18  -4  -30.62   40.45
  -1 -18  -4    6.34    4.85
   1  18  -4    0.80    4.08
   1  18  -4    6.30   12.74
   1 -18   4    8.87    2.92
  -1 -18  -4    0.50    6.50
   1 -18   4  -39.91   12.36
  -1 -18  -4   32.35   25.64
   1 -18  -4    8.11    5.08
  -1  18  -4   -7.62   10.93
  -1  18  -4    3.76    4.47
   1 -18  -4   49.62   42.92
  -1 -18   4    3.72    3.07
  -1 -18   4  -10.63   10.66
   1 -18  -4   -7.77   15.79
   1 -18  -4    0.49    5.47
   1  18  -5   -0.74    3.35
  -1 -18  -5  -46.87   62.82
   1  18  -5    9.65   12.62
   1 -18   5   19.32   17.54
  -1 -18  -5    7.56    5.05
  -1 -18  -5    4.49   16.88
  -1 -18   5   -5.95   20.47
  -1  18  -5   -2.16    3.01
  -1  18  -5  -13.73   13.68
   1 -18  -5   32.73   40.46
   1 -18  -5    4.80   17.47
   1 -18  -5    9.91    4.24
  -1 -18  -6   -9.46   21.06
  -1 -18  -6   84.84   51.21
   1 -18   6   32.53   27.49
   1  18  -6    2.46    4.38
   1  18  -6  -18.05   13.47
  -1 -18  -6    8.57    4.01
   1 -18  -6    7.59    4.80
   1 -18  -6  -17.68   40.58
   1 -18  -6  -20.20   17.63
  -1  18  -6   -1.02    3.55
  -1  18  -6   13.42   16.28
  -1 -18   6   -0.58   17.98
  -1 -18  -7    2.60    3.58
  -1 -18  -7   -0.86   25.30
  -1 -18  -7   28.82   47.27
   1 -18   7   10.40   24.15
   1  18  -7    6.15   18.72
  -1 -18  -7    4.56    4.95
   1  18  -7    3.29    4.82
   1 -18  -7   58.31   46.78
  -1 -18   7  -13.49   23.78
  -1  18  -7    4.21    4.50
  -1  18  -7   14.06   17.85
   1 -18  -7  -14.40   21.15
   1 -18  -7    2.43    5.02
  -1 -18  -8   -2.61    4.91
  -1 -18  -8  -43.84   55.48
   1  18  -8  -17.40   37.25
   1  18  -8   -1.54    3.19
  -1 -18  -8  -23.59   21.24
   1 -18   8  -21.67   31.04
  -1 -18  -8   10.44    5.79
  -1  18  -8    6.85    5.09
   1 -18  -8  -35.12   43.63
   1 -18  -8  -35.21   41.73
   1 -18  -8   15.44    5.94
  -1  18  -8   -6.45   21.34
  -1 -18   8   32.98   32.58
  -1 -18  -9    1.80    6.72
   1  18  -9    4.89    5.13
  -1 -18  -9   19.60   33.21
  -1 -18  -9   15.39    7.02
  -1 -18  -9  -40.65   59.72
   1  18  -9  -36.51   25.45
  -1  18  -9    5.42   25.78
   1 -18  -9    8.11    6.90
   1 -18  -9    1.70   47.12
   1 -18  -9   -2.47   27.09
  -1  18  -9   -2.83    4.29
  -1 -18   9   29.58   33.20
  -2  18   0  135.44   28.96
   2  18   0  140.19   30.19
   2  18   0   88.15   20.86
   2 -18   0  125.99   27.72
  -2 -18   0  150.77   18.83
  -2 -18   0  101.08   24.84
   2 -18   0  152.81   19.47
   2 -18   1  121.50   16.27
  -2 -18  -1  138.51   17.00
   2  18  -1   86.84   23.47
  -2 -18  -1  114.08   22.30
  -2 -18  -1  211.65   40.49
  -2  18   1   82.07   21.94
   2  18  -1  100.73   19.42
   2 -18   1   93.65   20.64
  -2  18  -1   77.91   17.45
  -2 -18   1  129.51   16.16
  -2  18  -1   92.98   22.55
   2  18   1   74.87   18.98
   2 -18  -1  104.95   25.23
  -2 -18   1   97.58   24.21
   2  18   1   98.51   26.68
   2 -18  -1  132.52   17.39
   2  18  -2  227.48   41.26
  -2 -18  -2  215.54   32.39
   2 -18   2  247.31   29.65
   2  18  -2  173.64   30.19
   2 -18   2  292.77   43.75
  -2  18   2  149.79   37.66
  -2 -18  -2  274.58   32.00
  -2 -18  -2  210.57   42.60
   2 -18  -2  223.86   40.00
  -2  18  -2  151.29   34.84
   2 -18  -2  219.26   31.70
  -2 -18   2  321.94   46.83
  -2 -18   2  250.44   29.53
   2 -18   3  162.62   18.51
  -2 -18  -3  153.39   36.34
   2 -18   3  119.17   27.88
  -2 -18  -3  115.68   23.82
   2  18  -3  194.65   41.83
   2  18  -3  102.28   20.69
   2 -18  -3  127.10   48.89
  -2  18  -3  104.26   18.61
  -2 -18   3  146.44   18.33
   2 -18  -3  174.80   22.35
  -2  18  -3   81.93   24.45
   2  18  -4  139.54   21.02
   2  18  -4  132.25   34.58
  -2 -18  -4  218.41   33.87
   2 -18   4  132.28   30.54
  -2 -18  -4   81.15   55.45
  -2 -18  -4   91.65   32.45
  -2 -18  -4  148.20   27.34
   2 -18   4  165.96   20.55
  -2  18  -4  165.46   31.93
  -2  18  -4  138.39   21.07
   2 -18  -4  180.68   30.81
  -2 -18   4  175.80   20.73
  -2 -18   4  102.37   28.99
   2 -18  -4   20.98   42.22
   2 -18  -4  186.94   34.98
   2 -18  -4  147.33   21.65
   2 -18   5   80.46   27.05
   2  18  -5   42.51   20.41
  -2 -18  -5   68.46   51.12
  -2 -18  -5   71.16   31.71
   2  18  -5  115.28   17.67
  -2 -18  -5  120.10   22.55
  -2  18  -5  114.65   26.05
   2 -18  -5  110.88   45.91
   2 -18  -5   53.25   24.37
  -2 -18   5   96.31   43.00
  -2  18  -5   65.11   14.58
   2 -18  -5  101.15   14.12
  -2 -18  -6  107.73   63.15
   2 -18   6  101.37   32.11
   2  18  -6   77.06   27.55
  -2 -18  -6  100.55   19.28
  -2 -18  -6  128.78   23.57
   2  18  -6   99.90   17.99
  -2 -18  -6  171.41   60.82
   2 -18  -6  127.76   33.91
  -2  18  -6  125.32   29.28
  -2 -18   6  102.09   28.54
   2 -18  -6   60.51   47.96
  -2  18  -6  129.15   20.04
  -2 -18  -7   70.15   13.89
  -2 -18  -7   54.05   14.26
   2  18  -7   42.43   23.73
  -2 -18  -7    2.40   56.43
   2 -18   7   50.32   28.55
  -2 -18  -7   53.21   28.84
   2  18  -7   59.85   11.31
  -2 -18   7   15.92   24.04
   2 -18  -7  -25.79   39.50
  -2  18  -7    4.35   19.56
  -2  18  -7   44.51   10.62
   2 -18  -7   34.21   24.92
  -2 -18  -8   72.81   15.92
  -2 -18  -8   42.93   12.01
  -2 -18  -8  -15.57   48.68
   2  18  -8   90.09   29.12
   2  18  -8   55.98   11.34
  -2 -18  -8    8.21   29.97
   2 -18  -8   36.10   30.39
   2 -18  -8   97.29   52.16
  -2  18  -8   70.35   25.89
  -2 -18   8  -13.37   44.43
   2 -18  -8   46.65   13.09
  -2  18  -8   58.65   11.65
  -2 -18  -9    1.54   34.40
   2  18  -9   28.00    8.08
  -2 -18  -9   87.12   58.56
  -2 -18  -9   30.81   11.55
  -2 -18  -9   21.58    8.36
   2 -18   9   -3.66   39.03
   2  18  -9   65.20   30.34
   2 -18  -9   39.55   30.14
   2 -18  -9   13.19    8.11
  -2  18  -9    9.59    6.24
  -2  18  -9   -0.10   26.16
   2 -18  -9  -47.58   49.86
  -2 -18   9   20.95   41.90
   3  18   0    4.34    4.72
   3 -18   0    7.13   11.27
  -3 -18   0    7.31    6.37
  -3 -18   0    3.42   11.97
   3 -18   0    4.47    4.39
  -3  18   0    8.43   10.84
  -3 -18   0    9.01    3.39
   3  18   0   -3.16   11.74
   3  18  -1   -0.38    3.86
   3 -18   1    0.21    9.88
   3 -18   1    2.27    3.35
  -3 -18  -1    8.72    7.55
  -3 -18  -1    6.20    2.73
  -3 -18  -1    5.52   18.66
   3  18  -1  -24.51   12.32
  -3  18   1    1.19   11.16
  -3  18  -1   -7.24   11.45
  -3 -18   1   -1.13   11.01
   3  18   1    5.15    4.05
  -3 -18   1    9.78    3.48
   3 -18  -1   -1.13    3.52
   3 -18  -1    0.55   11.01
   3  18   1   -2.15   13.68
   3  18  -2   18.44   13.91
  -3 -18  -2   -1.04    4.82
  -3 -18  -2   -4.47   13.24
   3  18  -2   -2.28    3.58
   3 -18   2    4.14   11.69
  -3 -18  -2    8.37    4.57
   3 -18   2   11.14    3.40
   3  18   2   -6.21   18.09
  -3 -18   2    4.66    2.66
   3  18   2    3.97    2.70
  -3 -18   2   -4.02   10.90
   3 -18  -2   -5.46   11.20
   3 -18  -2   -1.43    4.40
  -3  18  -2   25.47   13.12
  -3  18  -2   10.03    3.69
   3  18  -3    9.88   13.51
   3  18  -3   -4.39    3.20
  -3 -18  -3  -18.45   15.12
  -3 -18  -3   10.04    6.22
   3 -18   3    4.30    2.98
   3 -18   3   -2.73   12.96
  -3  18  -3    4.21   10.24
   3 -18  -3  -29.63   33.74
  -3 -18   3   -4.13   11.14
   3 -18  -3    1.75    6.28
  -3 -18   3    3.71    2.85
  -3  18  -3    8.00    4.16
   3 -18  -3    0.32   13.25
  -3 -18  -4    9.05    5.85
   3 -18   4   -1.44   13.31
  -3 -18  -4    2.98    6.32
   3 -18   4   16.08    3.97
  -3 -18  -4  -17.42   29.98
   3  18  -4   -4.09    3.23
  -3 -18  -4    5.64   46.06
   3  18  -4   -3.56   17.08
  -3  18  -4   14.57   11.59
   3 -18  -4  -26.72   35.37
  -3 -18   4    3.66   12.78
   3 -18  -4   -0.32    5.56
  -3 -18   4    4.11    3.41
  -3  18  -4    2.25    3.59
   3 -18  -4   -6.94   15.01
  -3 -18  -5    2.16    6.39
   3 -18   5   10.09   17.42
  -3 -18  -5    9.62   51.22
   3  18  -5    8.28   12.96
  -3 -18  -5  129.10   55.43
   3  18  -5    4.22    4.83
  -3  18  -5   -0.09   11.90
   3 -18  -5   16.52   18.60
  -3  18  -5    2.67    3.62
   3 -18  -5  -63.23   33.10
  -3 -18   5    4.51   14.31
  -3 -18  -6   19.67    7.49
  -3 -18  -6   11.59    4.66
   3  18  -6   14.50   17.87
  -3 -18  -6   10.80   27.13
   3 -18   6    1.79   21.40
  -3 -18  -6  -45.48   46.31
   3  18  -6    4.77    4.52
   3 -18  -6   16.50   33.73
  -3 -18   6    7.03   16.68
  -3  18  -6    5.34    4.70
  -3  18  -6    0.63   16.14
   3 -18  -6   28.44   38.27
   3  18  -7   18.25   21.87
  -3 -18  -7   44.90   40.58
   3  18  -7   -1.32    4.12
  -3 -18  -7   10.55    4.95
  -3 -18  -7    8.96    4.68
  -3 -18  -7  -49.45   54.90
   3 -18  -7    9.82    3.93
  -3  18  -7    5.48    4.52
   3 -18  -7    7.70   23.76
  -3  18  -7   15.66   18.29
  -3 -18   7    8.72   25.18
   3 -18  -7    7.23   39.36
  -3 -18  -8    4.84    5.85
   3  18  -8  -25.73   22.98
  -3 -18  -8   16.94    8.35
  -3 -18  -8   -2.22   33.47
  -3 -18  -8  -50.29   86.50
   3  18  -8   -2.96    3.82
   3 -18   8  -62.00   27.57
  -3  18  -8    3.37    4.70
  -3  18  -8    9.11   21.33
   3 -18  -8   -4.72   40.75
  -3 -18   8  -11.51   28.60
   3 -18  -8   -0.75   25.46
   3 -18  -8    5.19    5.31
   4 -18   0  166.70   32.92
  -4 -18   0  165.89   33.50
  -4 -18   0  195.67   29.50
   4  18   0  200.83   39.22
  -4 -18   0  210.94   25.58
   4 -18   0  218.51   26.34
  -4  18   0  140.51   31.68
   4  18   0  160.79   26.86
  -4 -18  -1  152.39   31.97
   4 -18   1  153.87   26.47
   4  18  -1   76.82   26.22
   4  18  -1  124.69   22.28
  -4 -18  -1  149.78   18.18
  -4 -18  -1  127.98   24.21
   4 -18   1  134.30   17.69
  -4  18   1  101.79   26.00
   4 -18  -1  123.88   18.74
  -4 -18   1  136.56   17.18
   4 -18  -1  106.25   25.18
  -4 -18   1  138.11   25.99
  -4 -18   1  115.63   23.62
  -4  18  -1   89.92   22.18
   4  18   1   77.52   20.12
   4  18   1   90.44   33.05
   4 -18   2  172.43   20.54
   4  18  -2  144.31   21.62
  -4 -18  -2  147.71   33.17
   4 -18   2  110.81   26.65
  -4 -18  -2  179.58   22.19
   4  18  -2   92.41   29.49
  -4 -18  -2  175.96   29.75
   4  18   2   98.02   28.56
  -4 -18   2  185.53   31.78
  -4  18  -2   98.74   26.65
  -4 -18   2  125.96   31.17
   4 -18  -2  160.44   22.65
  -4 -18   2  161.28   20.13
   4 -18  -2  140.49   29.97
   4  18   2  105.24   24.34
   4  18  -3   65.17   14.59
  -4 -18  -3  107.56   17.73
  -4 -18  -3   89.63   30.72
   4  18  -3   39.18   21.38
  -4 -18  -3   80.59   17.98
   4 -18   3   70.22   21.21
   4 -18   3   88.90   11.67
   4 -18  -3   63.88   16.24
   4 -18  -3   34.21   37.08
  -4  18  -3   37.16   17.35
  -4 -18   3   80.86   11.70
  -4 -18   3   93.62   25.22
   4 -18  -3   93.05   24.21
  -4 -18  -4   78.61   28.58
   4  18  -4   83.90   31.70
   4  18  -4  105.74   17.35
  -4 -18  -4  -51.45   48.56
   4 -18   4   39.51   21.44
  -4 -18  -4  104.10   21.09
   4 -18   4  113.67   13.61
  -4 -18  -4  168.34   25.04
  -4  18  -4   61.99   14.45
   4 -18  -4   51.18   36.73
   4 -18  -4   81.05   19.22
  -4  18  -4  109.22   24.68
   4 -18  -4   60.61   23.61
  -4 -18   4   87.35   27.27
  -4 -18   4  105.95   15.95
  -4 -18  -5   13.36   29.66
  -4 -18  -5   59.43   12.39
   4  18  -5   65.43   12.18
   4  18  -5   51.17   18.71
  -4 -18  -5  -18.15   64.61
  -4 -18  -5   69.40   16.75
   4 -18   5   19.59   29.92
  -4  18  -5   55.90   11.24
  -4  18  -5   23.52   15.99
  -4 -18   5   22.28   19.65
   4 -18  -5   97.82   41.44
  -4 -18  -6  128.91   22.50
  -4 -18  -6   70.97   14.30
   4 -18   6   32.16   32.11
  -4 -18  -6  119.06   71.02
   4  18  -6   91.74   15.20
  -4 -18  -6   16.07   62.54
   4  18  -6   37.68   23.84
  -4  18  -6   49.72   19.13
  -4 -18   6   14.83   27.76
  -4  18  -6   73.66   13.92
   4 -18  -6  115.99   41.90
   4 -18  -6   71.20   25.95
  -4 -18  -7   95.34   87.75
   4  18  -7   65.94   26.32
   4  18  -7   25.93    7.75
  -4 -18  -7   48.97   11.34
   4 -18   7   49.85   30.48
  -4 -18  -7   33.31   11.08
  -4 -18  -7  -22.21   27.49
   4 -18  -7  -22.97   21.95
   4 -18  -7    3.65   41.46
  -4  18  -7   36.37    8.28
   4 -18  -7   19.70    8.56
  -4  18  -7   19.87   20.31
  -4 -18   7   -2.24   22.37
  -4 -18  -8    7.79   35.07
  -4 -18  -8   53.67   12.21
   4  18  -8   36.28    9.73
  -4 -18  -8   45.08   16.38
  -4 -18  -8    5.58   66.76
   4  18  -8   74.35   49.67
   4 -18   8   49.54   38.80
   4 -18  -8   80.84   48.23
  -4  18  -8   52.99   27.32
  -4 -18   8    1.47   43.53
  -4  18  -8   50.68   11.29
   4 -18  -8   49.73   12.14
   4 -18  -8   37.27   29.23
   5  18   0   20.56   16.48
  -5  18   0  -17.99   10.64
  -5 -18   0   11.70    7.77
  -5 -18   0    5.82   15.83
  -5 -18   0    6.29    3.01
   5 -18   0   10.09    4.24
   5  18   0   -1.01    4.28
  -5 -18  -1  -11.84   15.74
   5  18  -1   -1.26   15.84
   5  18  -1   -4.00    3.63
  -5 -18  -1    5.39    6.43
   5 -18   1   16.96    4.23
   5 -18   1   21.62   15.63
  -5 -18  -1    9.72    3.93
  -5 -18   1   10.76    3.81
  -5 -18   1    9.77   15.91
  -5  18  -1   18.70   13.21
   5 -18  -1    0.04    3.92
   5  18   1   13.60   16.66
  -5 -18   1    4.24    5.56
   5  18   1    3.91    3.10
  -5 -18  -2   -1.52   18.44
   5  18  -2  -20.87   15.98
  -5 -18  -2    8.23    6.16
   5 -18   2   -3.11   11.20
   5  18  -2    2.42    4.08
  -5 -18  -2    7.14    4.59
   5 -18   2    6.31    2.95
   5 -18  -2   19.32   35.03
  -5  18  -2    2.35   12.10
   5 -18  -2    7.85    6.65
  -5 -18   2    7.61   12.29
  -5 -18   2   12.97    6.71
   5  18   2    6.67    4.54
  -5 -18   2    3.67    2.45
   5  18   2  -25.95   14.36
   5 -18   3   -4.11   16.14
  -5 -18  -3    5.46    4.06
  -5 -18  -3  -11.31   55.55
   5 -18   3    7.12    3.08
   5  18  -3    8.40   17.32
  -5 -18  -3   24.92    6.61
  -5 -18  -3   15.57   22.98
   5  18  -3    6.51    5.28
  -5 -18   3    3.87    5.73
   5 -18  -3  -30.54   32.70
  -5 -18   3   -6.06   11.28
  -5 -18   3   13.86    3.53
   5 -18  -3   -0.31    4.81
  -5  18  -3  -11.84   12.31
  -5 -18  -4    9.39    6.63
   5  18  -4  -40.07   18.15
  -5 -18  -4    2.52    3.88
  -5 -18  -4  -16.13   22.55
   5  18  -4    5.06    4.61
  -5 -18  -4    9.46    6.67
  -5 -18  -4  -40.32   51.22
   5 -18   4    8.03    3.12
   5 -18  -4    0.25   33.83
   5 -18  -4   -3.46    4.79
  -5 -18   4    6.81    5.01
  -5 -18   4    1.77    3.16
  -5  18  -4   23.62   16.53
  -5  18  -4    6.19    2.89
  -5 -18   4  -15.85   15.22
  -5 -18  -5    8.04    5.23
   5  18  -5    6.75   19.29
  -5 -18  -5    4.15    4.27
  -5 -18  -5   29.01   30.68
   5  18  -5   -3.08    3.04
   5 -18   5   20.08   21.76
  -5 -18  -5    1.05   60.06
  -5 -18   5    2.18    5.68
   5 -18  -5   -1.74   30.86
  -5  18  -5  -24.60   12.70
  -5 -18   5 -114.30   43.16
   5 -18  -5   -4.60   18.50
  -5  18  -5   13.23    4.13
   5  18  -6    4.16    4.76
  -5 -18  -6   -1.66   30.84
  -5 -18  -6   -1.54    7.61
   5  18  -6    0.07   17.26
  -5 -18  -6  -16.51   60.16
  -5 -18  -6    3.73    5.00
   5 -18   6   13.64   25.62
  -5 -18   6    0.64   19.17
   5 -18  -6  -51.05   31.07
  -5  18  -6    4.54    3.67
  -5  18  -6   11.23   17.76
   5 -18  -6  -23.19   18.89
   5  18  -7    0.86    4.81
  -5 -18  -7    9.91    8.80
  -5 -18  -7  -22.44   31.61
   5 -18   7  -20.31   29.38
  -5 -18  -7 -130.18   55.97
  -5 -18  -7   12.01    4.47
   5  18  -7    3.39   21.13
  -5  18  -7  -18.10   19.60
   5 -18  -7  -14.14   39.13
   5 -18  -7    7.87    4.53
   5 -18  -7   18.69   25.25
  -5  18  -7    4.97    4.38
  -5 -18   7  -14.81   29.34
  -5 -18  -8    7.56   41.08
  -6 -18   0  101.49   22.25
   6  18   0   50.92   27.30
  -6 -18   0  125.24   15.97
  -6 -18   0   49.31   26.52
  -6  18   0   85.45   22.97
   6  18   0  100.50   21.00
   6 -18   0  162.59   17.96
  -6 -18  -1   50.76   14.83
   6  18  -1   35.94   10.63
   6  18  -1   15.15   19.62
  -6 -18  -1   56.37    9.48
   6 -18   1   58.07   10.42
  -6 -18  -1   16.06   17.41
   6  18   1   19.08   21.55
   6 -18  -1   50.47   11.45
  -6  18  -1   21.07   14.59
  -6 -18   1   29.26   20.16
  -6 -18   1   60.71    9.56
  -6 -18   1   51.33   15.25
   6 -18   2  158.43   18.35
  -6 -18  -2  123.83   27.88
   6  18  -2   67.86   29.06
  -6 -18  -2  155.62   19.07
   6  18  -2   87.04   20.92
  -6 -18  -2   84.20   33.99
  -6 -18   2  129.28   26.64
  -6 -18   2  104.01   30.50
  -6  18  -2  112.02   27.21
   6 -18  -2  116.74   22.34
  -6 -18   2  148.20   18.17
   6 -18  -2   69.86   42.06
  -6 -18  -3   56.54   28.22
  -6 -18  -3   89.65   13.80
   6 -18   3   57.71   10.18
   6  18  -3   58.87   12.98
  -6 -18  -3   27.87   13.04
  -6 -18  -3   38.90   62.80
   6  18  -3   75.80   26.44
   6 -18  -3   37.64   12.51
  -6 -18   3   69.81   10.85
   6 -18  -3   24.12   36.32
  -6 -18   3   63.79   18.15
  -6 -18   3   60.33   21.21
  -6  18  -3   39.60   18.03
   6 -18  -3   48.24   12.98
  -6 -18  -4   62.13   12.40
  -6 -18  -4  114.34   16.63
   6 -18   4   83.51   13.40
  -6 -18  -4   87.07   38.98
   6  18  -4   62.73   25.97
   6 -18   4   39.41   27.06
   6  18  -4   94.03   15.32
  -6 -18  -4   23.55   57.59
  -6 -18  -4   80.08   18.49
  -6 -18   4   50.51   15.42
   6 -18  -4   41.97   14.04
  -6  18  -4   62.38   21.20
   6 -18  -4   48.54   34.95
  -6 -18   4   11.84   14.81
  -6 -18  -5   66.55   35.26
  -6 -18  -5   34.30    8.54
   6  18  -5   38.32    9.08
   6 -18   5  -21.59   22.40
  -6 -18  -5  110.56   66.65
  -6 -18  -5   24.86   11.61
   6  18  -5   14.27   21.12
  -6 -18   5   39.18   23.72
  -6  18  -5   21.01   18.53
   6 -18  -5  -55.99   30.75
  -6 -18   5   14.89    9.75
   6 -18  -5   40.78   21.80
  -6 -18  -6  -14.26   43.27
   6  18  -6   80.48   14.21
   6  18  -6   64.84   25.93
   6 -18   6   65.18   34.60
  -6 -18  -6   88.67   14.10
  -6 -18  -6   65.03   19.51
  -6 -18  -6   36.01   72.67
  -6  18  -6   36.34   21.11
  -6 -18   6   75.29   17.74
  -6  18  -6   46.10    9.86
   6 -18  -6   19.42   24.17
  -6 -18   6  -12.40   24.20
   6 -18  -6   66.75   36.03
   6  18  -7   31.82    8.21
  -6 -18  -7    9.61   48.68
  -6 -18  -7   25.25    7.45
  -6 -18  -7   54.64   63.55
  -6 -18  -7   20.94   11.53
   6  18  -7  -15.14   27.73
  -6 -18   7    0.83   30.25
   6 -18  -7   55.78   35.94
  -6 -18   7   16.02    9.30
   6 -18  -7   25.88    8.52
  -6  18  -7   17.26    6.11
   7  18   0    4.08    4.73
   7 -18   0   10.11   12.06
   7 -18   0   12.87    5.45
   7 -18   0    3.89    6.36
  -7 -18   0  -11.23   12.39
  -7 -18   0    4.58    3.00
   7  18   0   41.43   23.02
  -7 -18   0   -0.99    4.69
  -7 -18  -1   13.83    7.92
   7  18  -1    9.91    4.99
   7 -18   1    8.62    3.97
  -7 -18  -1    9.70    4.23
   7  18  -1   11.46   18.94
  -7 -18  -1   -9.79   19.45
   7 -18   1    0.80   14.54
   7 -18  -1   -5.57    4.60
   7 -18  -1    3.32    4.72
   7 -18  -1  -81.44   32.97
  -7 -18   1  -14.16   12.92
  -7  18  -1   -4.56   13.61
  -7 -18   1   12.95    7.74
   7  18   1    7.88    3.71
   7 -18  -1  -15.89   13.26
   7  18   1  -39.85   18.02
  -7 -18   1   11.91    3.04
  -7 -18  -2    8.76    4.00
   7 -18   2    6.73    3.10
  -7 -18  -2    7.26    3.81
  -7 -18  -2   16.06    9.83
   7 -18   2  -18.12   18.10
  -7 -18  -2    8.62   20.79
   7  18  -2   20.96   20.57
   7  18  -2    3.75    5.34
  -7 -18   2    1.00   14.70
   7 -18  -2   -3.71    4.66
  -7  18  -2   12.47   14.07
   7 -18  -2  -12.03   12.75
  -7 -18   2    7.24    3.04
  -7 -18   2    8.25    5.80
   7  18   2   -1.33    4.19
   7 -18  -2   29.59   33.43
   7 -18  -2   -2.05    5.00
  -7 -18  -3    8.55    3.78
   7 -18   3    6.57    3.81
   7  18  -3    0.97    5.10
   7 -18   3  -19.29   18.72
  -7 -18  -3   13.59    4.27
  -7 -18  -3    2.96    4.55
  -7 -18  -3  -43.44   23.94
   7  18  -3  -44.28   20.33
  -7 -18  -3   13.03   65.46
   7 -18  -3  -26.25   14.97
   7 -18  -3    7.69   31.59
  -7  18  -3    0.97   14.07
   7 -18  -3   -1.98    5.21
  -7 -18   3   24.80    8.97
  -7 -18   3   10.09    3.73
   7 -18  -3    0.67    5.61
  -7 -18   3   13.18   19.74
  -7 -18  -4   -5.40   30.82
   7  18  -4    0.34    3.92
   7 -18   4    4.30   22.56
  -7 -18  -4    2.75    2.79
  -7 -18  -4   10.50    5.60
  -7 -18  -4   80.69   66.60
  -7 -18  -4    2.63    4.16
   7  18  -4    1.19   21.38
  -7 -18   4    3.81    3.86
   7 -18  -4   -8.45   19.55
  -7 -18   4   10.42   18.17
   7 -18  -4   17.51   34.02
  -7  18  -4   16.03   17.34
   7 -18  -4    1.12    4.80
   7  18  -5   -0.85    4.00
  -7 -18  -5   24.95    9.91
   7 -18   5   22.47   28.64
  -7 -18  -5    7.48    4.41
  -7 -18  -5  -18.87   69.27
  -7 -18  -5  -46.41   27.99
   7  18  -5   11.07   27.24
  -7 -18   5    6.04    4.42
   7 -18  -5   19.29   19.97
  -7  18  -5  -32.10   16.24
  -7 -18   5  -21.59   18.34
   7 -18  -5  -14.96   32.35
  -7 -18   5    7.41    6.69
   7  18  -6  -45.78   30.82
  -7 -18  -6    1.16    6.28
  -7 -18  -6   78.53   51.77
  -7 -18  -6    9.53    4.89
   7  18  -6    4.55    5.47
  -7 -18  -6   56.41   73.66
  -7 -18   6   -0.82   29.18
   7 -18  -6   -2.37   33.95
  -7 -18   6    5.78    8.33
   8 -18   0  101.10   15.03
   8  18   0   34.58   26.24
  -8 -18   0   89.10   24.59
   8 -18   0   30.91   38.33
   8  18   0   81.51   17.86
   8 -18   0   69.17   20.43
  -8 -18   0   64.24   10.36
   8  18  -1   13.51   26.30
   8  18  -1   32.77   10.54
  -8 -18  -1   47.77   14.77
   8 -18   1   41.19   19.99
  -8 -18  -1   20.43    6.92
   8 -18   1   58.61    9.78
  -8 -18  -1   10.20   20.38
  -8 -18  -1   36.90    7.07
   8 -18  -1   44.87   10.45
  -8 -18   1   53.23   17.86
   8 -18  -1   38.81   15.27
  -8 -18   1   42.73    7.38
   8 -18  -1   10.38    9.90
   8  18   1   23.57   10.61
   8 -18  -1   60.34   34.26
   8 -18   2   61.86   23.17
  -8 -18  -2   27.78   26.37
  -8 -18  -2   75.55   11.80
   8  18  -2   19.93   24.62
  -8 -18  -2   13.88   70.23
  -8 -18  -2  124.42   27.30
   8 -18   2   82.63   10.14
   8  18  -2   53.85   13.24
   8 -18  -2   32.94   17.32
   8 -18  -2   49.55   13.87
  -8 -18   2   41.62   15.63
   8 -18  -2   73.30   14.44
  -8  18  -2   43.61   18.10
  -8 -18   2    6.75   18.84
  -8 -18   2   63.83   10.61
   8 -18  -2    8.93   32.02
   8 -18   3   22.21   22.77
   8  18  -3   12.21   25.28
   8 -18   3   36.79    7.08
  -8 -18  -3   35.89   15.10
   8  18  -3   35.10   10.28
  -8 -18  -3   37.17    7.93
  -8 -18  -3   67.12   77.97
  -8 -18  -3   37.41    7.27
   8 -18  -3   15.95    8.77
   8 -18  -3    9.78   28.60
   8 -18  -3   17.25    8.85
   8 -18  -3    7.95   15.81
  -8 -18   3   27.10   14.79
  -8  18  -3   14.27   15.50
  -8 -18   3   25.18    6.51
  -8 -18   3  -15.97   15.46
   8  18  -4   47.03   30.78
  -8 -18  -4   68.32   11.07
   8  18  -4   40.76   11.26
  -8 -18  -4   56.39   10.61
   8 -18   4  -21.98   27.98
  -8 -18  -4   35.54   15.58
  -8 -18  -4  -41.49   75.58
   8 -18  -4   14.41   14.67
   8 -18  -4   59.01   30.91
  -8 -18   4    8.83   22.08
  -8  18  -4   30.29   19.72
  -8 -18   4   70.13   10.74
  -8 -18   4   38.01   16.16
   8 -18  -4   49.00   21.49
   8  18  -5   33.22   32.31
  -8 -18  -5   30.72    8.58
  -8 -18  -5   30.79    7.58
   8  18  -5   15.21    6.55
  -8 -18  -5   62.97   75.74
  -8 -18  -5  -60.44   39.47
  -8 -18   5   19.12    6.39
   8 -18  -5    6.06   28.53
  -9 -18   0   20.58    9.12
  -9 -18   0   -0.97   21.96
   9 -18   0    0.43    3.77
   9  18   0   -9.31   26.66
   9  18   0    8.10    6.66
  -9 -18   0    5.75    3.20
  -9 -18  -1   20.09   19.30
   9  18  -1    0.79    3.87
  -9 -18  -1   -0.16    1.36
  -9 -18  -1   18.20    8.28
   9  18  -1   -9.59   30.41
  -9 -18  -1    0.94    2.65
   9 -18   1   12.18    4.11
  -9 -18   1   -0.67    1.29
   9 -18  -1    7.79    5.68
  -9 -18   1   -7.92   17.81
  -9 -18   1    4.23    2.92
   9  18   1   12.38    6.30
  -9 -18   1   17.40    8.55
  -9 -18  -2   32.11   23.85
  -9 -18  -2  -93.34   80.51
  -9 -18  -2    0.21    1.39
   9 -18   2    3.28   20.31
  -9 -18  -2    8.18   10.26
   9  18  -2    5.71    5.38
  -9 -18  -2   -0.12    2.15
   9 -18   2    1.00    3.36
   9  18  -2   40.49   31.29
  -9 -18   2  -10.87   22.34
   9  18   2   -5.08    5.31
   9 -18  -2    3.30    6.85
   9 -18  -2    5.21    6.07
  -9 -18   2   -0.27    1.49
  -9 -18   2    2.45    5.65
   0  19   0    6.82    4.02
   0 -19   0    9.82    4.83
   0  19   0   15.15   14.54
   0 -19   0    9.08   11.72
   0 -19  -1   -0.66   15.09
   0 -19  -1    6.48    4.73
   0 -19   1    6.03    3.31
   0  19  -1    9.47   10.90
   0  19   1   30.92   15.16
   0  19  -1    2.67    3.37
   0 -19   1   -8.38    8.12
   0  19   1    7.00    3.36
   0 -19   2    7.61    2.73
   0 -19  -2    6.58    6.04
   0  19  -2    7.29    4.84
   0 -19   2   -4.70   11.95
   0  19  -2   -2.42   12.25
   0 -19  -2   19.40   13.62
   0  19   2    1.97   11.66
   0  19  -3   19.60   12.22
   0 -19   3  -11.87   10.28
   0 -19  -3    0.49    5.21
   0  19  -3   -1.41    3.00
   0 -19  -3    2.36    3.42
   0 -19  -3   -4.53   14.66
   0 -19   3   10.07    3.23
   0  19  -4   17.72   18.53
   0 -19  -4   23.64   70.87
   0 -19  -4    4.52   17.81
   0 -19   4    5.45   17.54
   0 -19  -4   14.36    6.13
   0 -19  -5   -6.34   17.95
   0 -19  -5    3.57    4.13
   0  19  -5  -12.30   11.63
   0 -19  -5   49.19   46.65
   0 -19   5   21.64   34.77
   0  19  -5    2.88    5.03
   0 -19  -6   15.30    6.10
   0 -19   6   -7.77   18.48
   0 -19  -6    4.23   19.16
   0 -19  -6  -30.39   81.99
   0  19  -6   -3.38   18.93
   0  19  -6   -0.80    4.06
   0 -19  -7   -2.96    3.46
   0 -19  -7    5.75    4.52
   0  19  -7  -27.49   18.89
   0  19  -7    0.31    4.11
   0 -19  -7   18.61   23.14
   0 -19  -7   74.74   52.98
   0 -19   7   23.60   25.72
   0  19  -8  -35.60   22.67
   0 -19  -8    2.14    4.04
   0 -19  -8    3.26    5.45
   0 -19   8   -5.40   31.44
   0  19  -8   -2.10    3.52
   0 -19  -8   18.90   29.83
   0 -19  -8  -38.98   55.73
   0  19  -9   -6.71   42.69
   0  19  -9   -3.43    3.83
   0 -19  -9  -10.28   62.03
   0 -19  -9    9.34    4.69
   1 -19   0  155.67   19.08
  -1 -19   0  144.35   27.55
   1  19   0  102.03   21.01
  -1  19   0   94.10   20.03
   1  19   0  124.14   28.90
   1 -19   0  165.39   31.73
  -1  19   0  104.20   25.11
  -1  19   1  145.88   33.96
   1  19  -1  239.88   44.77
  -1 -19  -1  212.68   27.73
  -1 -19  -1  221.10   38.67
   1 -19   1  146.46   33.69
   1 -19   1  207.91   26.67
   1 -19  -1  238.24   28.30
  -1 -19   1  224.26   42.60
  -1 -19   1  215.21   26.57
  -1  19  -1  214.01   40.04
   1 -19  -1  145.71   34.12
   1  19   1  183.65   37.97
   1  19   1  131.08   29.56
  -1 -19  -2  123.34   19.90
   1 -19   2   73.70   20.66
   1 -19   2   94.22   12.78
  -1 -19  -2   96.52   18.39
  -1  19   2   97.06   34.54
   1  19  -2   77.34   22.11
  -1 -19  -2   71.20   22.30
   1  19  -2   82.99   16.66
  -1  19  -2   69.81   15.59
  -1  19  -2   59.11   19.87
   1 -19  -2   64.71   23.93
  -1 -19   2   60.16   18.02
  -1 -19   2   99.77   12.92
   1  19   2   58.96   21.39
   1 -19  -2  101.15   18.96
   1  19  -3   98.26   20.50
   1  19  -3  159.30   37.00
   1 -19   3  127.23   17.41
  -1 -19  -3  138.74   24.04
  -1 -19  -3  194.09   28.43
   1 -19  -3  146.59   26.30
   1 -19  -3   88.99   26.75
  -1 -19   3  117.66   28.04
  -1  19  -3   72.54   23.96
  -1 -19   3  135.52   17.49
  -1  19  -3  137.11   22.30
   1  19  -4  108.13   17.55
  -1 -19  -4  179.98   46.26
   1  19  -4   94.89   25.60
  -1 -19  -4  111.92   19.85
  -1 -19  -4  163.99   65.31
   1 -19  -4   85.85   16.75
  -1  19  -4   67.33   21.61
  -1  19  -4   77.46   15.89
   1 -19  -4  105.35   29.46
   1 -19  -4   65.09   45.27
   1 -19  -4   84.50   29.38
  -1 -19   4   41.27   22.20
   1  19  -5  109.75   18.29
  -1 -19  -5   60.64   47.61
  -1 -19  -5  126.26   21.21
   1 -19   5   86.66   29.60
   1  19  -5   50.64   19.60
  -1 -19  -5  196.04   65.13
   1 -19  -5   66.10   48.51
   1 -19  -5  106.83   15.85
  -1  19  -5  112.08   25.91
  -1  19  -5  104.25   18.21
   1 -19  -5   48.46   25.44
   1  19  -6   21.29    7.76
   1  19  -6   21.63   17.97
  -1 -19  -6   36.09   56.78
   1 -19   6   39.35   22.82
  -1 -19  -6   35.44   10.23
  -1 -19  -6    1.74   23.84
   1 -19  -6   35.57    8.18
  -1  19  -6   -2.98   14.64
  -1  19  -6   23.31    7.90
   1 -19  -6   28.09   20.15
   1 -19  -6   67.90   50.37
  -1 -19   6   21.85   19.49
   1  19  -7   39.68   25.18
   1  19  -7   56.11   12.37
  -1 -19  -7   80.92   58.86
  -1 -19  -7   31.04   37.22
  -1 -19  -7   61.69   14.31
   1 -19   7   45.58   37.66
  -1 -19  -7   99.98   17.70
   1 -19  -7   52.93   13.82
  -1  19  -7   -0.15   36.62
  -1 -19   7   49.74   30.49
   1 -19  -7   71.53   27.62
   1 -19  -7   83.93   54.98
  -1  19  -7   58.67   12.41
   1 -19  -7   70.29   13.00
  -1 -19  -8   46.07   31.98
   1 -19   8   -8.16   45.86
   1  19  -8   29.19    8.25
  -1 -19  -8    7.23    6.47
   1  19  -8   -4.60   24.56
  -1 -19  -8   18.75   58.40
  -1 -19  -8   14.54    8.18
  -1  19  -8  -11.32   22.06
   1 -19  -8   61.22   76.90
  -1  19  -8   46.08   10.32
   1 -19  -8   19.98    9.13
  -1 -19   8    8.15   31.88
  -1 -19  -9 -104.11   58.88
   1 -19   9   40.09   41.98
   1  19  -9   33.36    9.00
   1  19  -9   29.24   35.10
  -1 -19  -9   41.91   11.67
  -1 -19  -9   83.52   47.97
  -1 -19  -9   58.09   13.91
   1 -19  -9  -39.33   83.16
   1 -19  -9   -8.57   30.73
   1 -19  -9   51.42   11.93
  -1 -19   9    4.23   37.96
  -1  19  -9   19.55   30.53
  -1  19  -9   53.98   11.39
  -2  19   0    0.02   12.54
   2  19   0    6.08    3.25
   2 -19   0  -10.46    9.79
   2  19   0   18.23   15.31
  -2 -19   0    4.48    3.94
   2 -19   0    1.47    3.81
  -2 -19   0   18.84   12.04
   2 -19   1    8.66    3.65
  -2  19   1   -0.53   11.63
  -2 -19  -1    4.05    3.99
  -2 -19  -1    7.71    6.21
  -2 -19  -1    8.98   14.78
   2 -19   1  -15.97   10.53
   2  19  -1   -6.89   12.78
   2  19  -1   -1.63    3.52
   2 -19  -1  -24.40   11.45
   2  19   1   -0.10   18.13
   2 -19  -1    2.77    4.28
  -2 -19   1    0.27   11.39
  -2  19  -1    4.60    2.39
  -2  19  -1   25.71   12.75
  -2 -19   1    2.60    2.31
   2  19   1    0.60    4.58
  -2  19   2    2.43   12.75
   2 -19   2   -5.60   11.05
   2 -19   2    6.30    3.20
  -2 -19  -2    2.72   14.03
   2  19  -2    8.22    4.91
  -2 -19  -2    5.63    4.72
   2  19  -2  -19.28   13.61
  -2 -19  -2    7.17    6.36
   2  19   2   12.40   15.15
  -2  19  -2   -5.92   12.00
  -2 -19   2    2.89   15.69
   2 -19  -2    2.66    6.42
  -2  19  -2    5.88    4.02
  -2 -19   2   11.93    3.80
   2 -19  -2   -0.01   11.60
   2 -19   3   -9.50    8.23
   2  19  -3    8.85   14.55
  -2 -19  -3   14.91    5.78
   2  19  -3    4.19    4.55
   2 -19   3   10.10    3.20
  -2 -19  -3   -1.75    4.52
  -2 -19  -3   32.93   20.69
   2 -19  -3  -40.67   39.91
  -2  19  -3    6.00    3.90
  -2  19  -3   -4.93   12.57
  -2 -19   3    9.67    3.18
  -2 -19   3   -6.71   10.21
   2 -19  -3   -0.75    6.05
   2 -19  -3  -10.32   13.76
  -2 -19  -4   10.31    6.34
   2 -19   4  -14.82   12.71
  -2 -19  -4   -8.13   52.07
   2  19  -4   16.24   21.79
  -2 -19  -4   -6.09   20.62
   2  19  -4   -2.22    3.39
   2 -19  -4  -11.25   17.04
  -2  19  -4  -19.92   13.57
   2 -19  -4   -1.31    5.24
   2 -19  -4   44.23   46.25
  -2  19  -4   -1.33    2.95
   2 -19  -4   11.55    4.56
  -2 -19   4   -2.82   11.54
   2  19  -5    6.95   14.28
   2  19  -5   -2.25    3.02
  -2 -19  -5  -15.51   21.20
  -2 -19  -5   19.40    7.01
  -2 -19  -5   42.69   74.75
   2 -19   5    5.87   16.90
   2 -19  -5    7.85    3.86
  -2 -19   5  -13.92   19.03
   2 -19  -5  -25.39   40.92
   2 -19  -5   15.90   20.17
  -2  19  -5   -2.81    3.50
  -2  19  -5    1.03   14.34
  -2 -19  -6    5.11    3.69
  -2 -19  -6   16.68    6.42
   2 -19   6   -7.05   22.07
  -2 -19  -6   23.71   52.51
   2  19  -6  -30.88   18.31
   2  19  -6    4.79    5.19
  -2 -19  -6  -16.67   21.52
  -2  19  -6   -0.75    4.27
   2 -19  -6    6.41   20.69
  -2 -19   6  -20.61   21.60
  -2  19  -6   14.50   14.74
   2 -19  -6   44.39   47.87
  -2 -19  -7   11.64    5.93
  -2 -19  -7    1.20    5.85
  -2 -19  -7   29.22   55.47
  -2 -19  -7   -4.12   28.13
   2  19  -7   34.67   32.35
   2  19  -7   -0.66    3.90
   2 -19  -7    4.45   43.88
  -2 -19   7   20.11   30.20
   2 -19  -7    8.58    4.35
  -2  19  -7    3.75    4.74
  -2  19  -7    9.25   20.28
   2 -19   8  -38.40   30.19
  -2 -19  -8    4.41    5.39
  -2 -19  -8    3.44    7.17
   2  19  -8    5.45    5.87
  -2 -19  -8   -2.74   60.80
   2  19  -8  -13.59   23.86
  -2 -19  -8   12.01   28.19
  -2 -19   8  -17.78   39.62
  -2  19  -8   -4.63   22.21
   2 -19  -8  -21.64   51.17
  -2  19  -8    1.04    4.16
   2 -19  -8    1.11    4.53
   2 -19  -8    3.74   25.86
   3 -19   0   61.72   11.59
   3 -19   0   41.77   16.43
   3  19   0   32.02   10.50
  -3 -19   0   36.19   11.50
  -3  19   0   13.76   12.95
  -3 -19   0   46.47   20.89
   3  19   0   34.08   21.19
  -3 -19   0   71.46   11.02
   3 -19   1  154.58   18.18
   3  19  -1   98.36   20.75
  -3  19   1   86.17   25.47
   3 -19   1   74.64   21.49
  -3 -19  -1  143.10   39.07
   3  19  -1  121.85   30.85
  -3 -19  -1  161.89   18.92
  -3 -19  -1  123.22   24.36
  -3 -19   1  143.98   17.58
  -3  19  -1  103.14   25.99
   3 -19  -1  121.39   18.56
   3  19   1   70.83   27.61
  -3 -19   1   85.36   26.52
   3 -19  -1  121.71   26.26
  -3 -19  -2   83.83   19.22
   3  19  -2   80.04   22.98
   3 -19   2  114.04   13.89
  -3 -19  -2  131.95   20.03
   3 -19   2   71.19   20.34
  -3 -19  -2   79.36   24.79
   3  19  -2  104.58   18.46
   3 -19  -2  110.43   20.41
  -3  19  -2   60.35   19.25
  -3 -19   2  109.93   13.66
   3  19   2   64.33   24.23
  -3  19  -2   62.69   14.86
   3 -19  -2  100.57   26.58
   3  19   2   65.51   16.78
   3  19  -3   98.55   32.17
  -3 -19  -3  172.88   46.83
   3 -19   3  196.25   23.09
  -3 -19  -3  164.85   29.88
   3  19  -3  137.99   23.71
  -3 -19  -3  180.83   26.36
   3 -19  -3   73.06   51.23
  -3 -19   3  182.77   22.89
  -3  19  -3  170.10   33.89
   3 -19  -3  128.76   31.37
   3 -19  -3  205.10   31.90
  -3 -19   3  305.44   56.26
   3 -19   4   21.64   15.38
   3  19  -4   51.27   10.81
  -3 -19  -4   33.52   25.20
  -3 -19  -4   54.98   54.02
   3  19  -4   47.90   21.25
  -3 -19  -4   74.48   17.43
   3 -19  -4   46.36   14.82
  -3 -19   4   15.07   15.72
  -3  19  -4   49.26   10.59
   3 -19  -4   42.79   19.78
  -3  19  -4   58.99   21.23
   3 -19  -4   47.60   42.01
   3 -19   5   53.09   24.32
  -3 -19  -5   68.55   56.26
  -3 -19  -5   12.15   53.98
   3  19  -5   65.06   14.85
  -3 -19  -5  113.37   22.55
   3 -19  -5   28.56   44.62
  -3  19  -5   93.32   16.08
  -3 -19   5   95.93   28.49
   3 -19  -5  100.03   13.70
  -3  19  -5   82.82   23.69
   3 -19  -5   60.56   24.11
  -3 -19  -6   30.98    9.22
  -3 -19  -6   15.58   10.37
   3  19  -6   27.64   19.33
  -3 -19  -6   46.56   33.50
  -3 -19  -6    7.52   54.65
   3  19  -6   32.50    8.81
  -3  19  -6   33.84    8.88
   3 -19  -6   18.29   39.91
  -3 -19   6   34.86   23.60
  -3  19  -6   38.33   20.99
  -3 -19  -7   86.97   18.89
  -3 -19  -7  108.02   48.53
  -3 -19  -7   76.63   14.79
   3  19  -7  103.13   28.69
   3  19  -7   58.43   13.42
  -3 -19  -7   85.96   76.25
   3 -19   7   10.62   31.22
   3 -19  -7  182.83   58.95
   3 -19  -7   57.34   14.16
  -3  19  -7   32.37   24.13
  -3 -19   7   18.95   26.93
  -3  19  -7   64.66   13.26
   3 -19  -7   30.56   26.69
   3  19  -8   27.28    8.35
   3  19  -8   24.94   23.36
  -3 -19  -8   15.78   10.94
  -3 -19  -8    7.67    6.86
  -3 -19  -8    9.92   33.46
   3 -19   8  -17.37   29.08
  -3 -19  -8  -90.47   57.05
  -3  19  -8   15.15   22.98
   3 -19  -8    0.71   26.78
   3 -19  -8   14.00    7.82
  -3 -19   8   57.01   49.54
   3 -19  -8   18.64   49.91
  -3  19  -8   18.45    6.48
  -4 -19   0    4.88    3.72
  -4  19   0  -18.76   11.41
  -4 -19   0    7.62    5.58
   4  19   0   14.30    5.20
   4 -19   0    7.47    4.87
   4  19   0    0.58   13.62
   4 -19   0    1.82   10.83
  -4 -19   0  -10.51   18.29
  -4 -19  -1    4.19   15.22
   4 -19   1   -4.87   10.87
   4  19  -1    3.61   14.64
   4 -19   1    2.40    3.31
  -4 -19  -1    1.09    4.89
  -4 -19  -1   10.92    3.90
   4  19  -1   -1.03    3.37
  -4  19   1    2.35   13.18
  -4 -19   1    6.83    2.66
   4 -19  -1    4.60   12.17
   4  19   1   13.30   17.48
   4 -19  -1    0.28    4.24
  -4 -19   1    0.16   16.18
  -4  19  -1   -2.16   11.45
   4  19   1    3.47    3.17
  -4 -19   1    5.66    4.86
   4 -19   2    6.55   10.49
   4  19  -2   -2.10    3.58
  -4 -19  -2    1.17    4.61
  -4 -19  -2    3.19    3.74
   4  19  -2   16.08   26.67
  -4 -19  -2   13.76   21.00
   4 -19   2   10.03    3.40
  -4  19  -2    2.09   12.26
   4 -19  -2    4.76   13.26
  -4 -19   2   10.51   19.72
   4  19   2    3.80    2.73
  -4 -19   2   10.30    3.14
  -4 -19   2   -0.97    4.81
   4  19   2   13.60   17.66
   4 -19  -2    3.97    6.31
  -4 -19  -3    3.84    4.99
  -4 -19  -3   -0.52    4.08
   4 -19   3    7.53    2.71
   4  19  -3   -0.25   16.19
   4 -19   3   -1.14   15.87
   4  19  -3    3.27    4.59
  -4 -19  -3  -25.92   15.36
  -4 -19   3    0.68    2.73
   4 -19  -3   11.13   15.69
  -4  19  -3    3.31    3.30
  -4 -19   3    2.30   16.96
   4 -19  -3   -2.24    4.73
  -4  19  -3    6.59   12.72
   4 -19  -3   36.70   42.54
  -4 -19  -4   16.94    6.88
   4  19  -4    0.98    4.57
  -4 -19  -4   57.00   59.29
   4 -19   4   15.92   17.79
   4  19  -4   -7.60   17.49
  -4 -19  -4   -3.94   21.28
   4 -19  -4   24.62   36.92
  -4  19  -4  -34.45   13.22
  -4 -19   4  -12.52   16.36
  -4  19  -4    2.50    3.49
   4 -19  -4    3.00    6.68
   4 -19  -4   10.58   29.58
   4  19  -5   -1.86    3.81
  -4 -19  -5    7.60    4.85
  -4 -19  -5  -25.90   58.80
  -4 -19  -5   16.39    6.96
   4  19  -5  -28.06   15.96
  -4 -19  -5  -59.65   37.30
  -4 -19   5   -1.98   27.74
  -4  19  -5    7.97   17.40
   4 -19  -5  -17.10   35.78
  -4  19  -5    3.88    3.60
  -4 -19  -6   52.27   70.18
  -4 -19  -6  -35.74   23.66
  -4 -19  -6    1.76    4.10
  -4 -19  -6    7.98    4.04
   4  19  -6  -12.61   18.52
   4  19  -6    1.45    4.29
   4 -19   6    3.25   23.44
   4 -19  -6   -8.82   34.61
  -4  19  -6    0.00    3.74
  -4  19  -6   19.08   18.36
  -4 -19   6  -44.26   23.10
   4 -19  -6   -2.90   19.70
  -4 -19  -7    8.48    8.28
   4  19  -7   15.08   22.54
   4 -19   7  -15.05   28.91
  -4 -19  -7   22.69   29.67
  -4 -19  -7   -0.75   62.62
   4  19  -7   -0.43    4.08
  -4 -19  -7    3.09    4.10
   4 -19  -7   47.06   47.15
  -4  19  -7   -3.72    3.66
  -4 -19   7   -5.32   27.89
   4 -19  -7  -14.59   23.45
  -4  19  -7    9.10   19.92
   4 -19  -7   -0.49    4.84
  -4 -19  -8  171.77  121.79
  -4 -19  -8   13.01    6.85
  -4 -19  -8  -10.48   39.99
   4 -19   8  -42.63   35.51
   4  19  -8   32.21   24.67
  -4  19  -8   -6.33   24.10
   4 -19  -8  -43.10   27.00
   4 -19  -8   10.75    4.59
  -4 -19   8   86.17   55.50
   4 -19  -8  -59.98   47.39
  -5 -19   0   19.09   13.87
  -5 -19   0   39.10   14.07
  -5 -19   0   67.03   10.62
  -5  19   0   12.46   15.30
   5  19   0   47.89   12.55
   5  19   0   -3.13   16.87
   5 -19   0   72.60   12.28
  -5 -19  -1  110.32   14.75
  -5 -19  -1   89.74   21.75
   5  19  -1  116.25   31.00
   5 -19   1   95.80   14.73
  -5 -19  -1  173.61   39.97
   5  19  -1   76.29   18.08
  -5  19   1   74.26   23.13
   5  19   1   69.97   17.51
  -5 -19   1   63.80   18.88
  -5 -19   1   97.16   22.77
   5  19   1  114.58   30.15
  -5 -19   1  112.98   14.28
   5 -19  -1  130.94   20.64
  -5 -19  -2   37.68   12.78
  -5 -19  -2   71.07   12.31
   5 -19   2   59.62   10.08
   5  19  -2   26.80    8.90
  -5 -19  -2   16.97   21.83
   5  19  -2   21.06   19.44
  -5 -19   2   27.43   14.47
   5  19   2   -8.14   21.96
   5 -19  -2   43.00   11.70
  -5  19  -2   20.17   15.10
  -5 -19   2   55.51    9.29
   5 -19  -2   13.79   37.44
  -5 -19   2   50.09   15.17
   5  19   2    8.00    8.23
  -5 -19  -3  108.70   23.93
  -5 -19  -3   79.89   64.11
  -5 -19  -3   35.17   28.92
   5  19  -3   66.08   28.50
  -5 -19  -3  139.04   21.09
   5  19  -3   89.49   17.37
   5 -19   3  106.69   13.81
   5 -19  -3  124.59   43.67
  -5 -19   3  122.01   30.55
   5 -19  -3   67.91   18.35
  -5 -19   3   86.13   21.92
  -5  19  -3   47.01   22.99
  -5 -19   3   97.29   13.72
   5  19  -4   35.83   22.67
  -5 -19  -4   11.83   23.98
  -5 -19  -4   41.41   13.17
   5 -19   4   34.44   22.67
   5  19  -4   47.43   10.41
  -5 -19  -4  102.60   68.47
  -5  19  -4   13.21   13.95
  -5 -19   4  -13.31   14.62
  -5 -19   4   28.24   10.47
  -5  19  -4   31.40    7.76
   5 -19  -4   27.88   19.36
   5 -19  -4   27.09   40.27
  -5 -19  -5   15.25   69.43
  -5 -19  -5   83.26   45.79
  -5 -19  -5  104.56   22.14
  -5 -19  -5  100.21   15.95
   5  19  -5   88.26   15.26
   5 -19   5   65.88   28.91
   5  19  -5   41.23   26.58
  -5 -19   5   68.69   17.16
  -5 -19   5   50.16   26.72
  -5  19  -5   76.52   24.63
   5 -19  -5   17.93   21.82
  -5  19  -5   50.11   11.97
   5 -19  -5  138.07   43.86
  -5 -19  -6   21.12   12.05
   5  19  -6   23.33    7.77
  -5 -19  -6   38.49    9.65
  -5 -19  -6    4.08   29.57
   5  19  -6    7.39   22.69
   5 -19   6   -7.37   28.29
  -5 -19  -6  225.78   78.75
  -5 -19   6   -3.08   27.40
   5 -19  -6   14.57   25.78
  -5  19  -6   22.31   18.65
   5 -19  -6   44.04   39.80
  -5  19  -6   38.22    8.72
   5  19  -7   40.75   28.63
  -5 -19  -7   41.48   61.78
  -5 -19  -7   61.17   17.19
  -5 -19  -7  -64.20   90.26
   5  19  -7   46.78   11.18
  -5 -19  -7   51.03   10.91
   5 -19   7   -8.84   31.93
   5 -19  -7   12.95   25.35
  -5  19  -7   37.36   23.50
   5 -19  -7  -49.09   37.66
  -5 -19   7   25.72   28.81
  -5  19  -7   30.47    8.81
   5 -19  -7   29.34    9.62
  -6 -19   0    2.35   14.15
  -6 -19   0   11.34    5.92
  -6  19   0  -15.22   12.19
   6 -19   0    6.49    5.29
   6  19   0   -6.40   17.94
  -6 -19   0    9.62    3.31
   6  19   0    2.34    3.26
   6  19  -1    2.49    4.22
  -6 -19  -1   -0.92   17.94
  -6 -19  -1    6.32    3.82
  -6 -19  -1    6.43    5.98
   6 -19   1    2.17    3.77
   6  19  -1  -14.63   18.44
  -6 -19   1    4.92    3.07
  -6 -19   1  -14.84   13.32
   6 -19  -1   -4.81    4.11
   6  19   1  -24.33   19.61
  -6 -19   1   -1.99    4.06
   6  19   1   -5.96    2.64
  -6  19  -1   -7.45   12.50
  -6 -19  -2   26.16   24.65
   6  19  -2    1.22    4.50
   6  19  -2  -15.04   17.72
  -6 -19  -2   13.24    4.35
   6 -19   2    2.85    2.75
  -6 -19  -2    9.36    5.25
   6 -19  -2   -1.59   37.82
  -6 -19   2  -10.39   16.56
   6  19   2    4.25    6.19
  -6 -19   2   10.70    3.57
  -6 -19   2    5.42    5.98
   6 -19  -2    4.09    5.44
  -6  19  -2   10.65   13.76
  -6 -19  -3   -0.60   18.90
   6  19  -3   -7.09   18.47
  -6 -19  -3    8.37    4.37
   6 -19   3    7.38    3.29
  -6 -19  -3    7.81    4.92
  -6 -19  -3   -8.42   62.06
   6  19  -3    3.79    4.92
  -6 -19   3   -2.83   11.78
  -6 -19   3    7.51    4.26
   6 -19  -3    3.11    5.90
   6 -19  -3   -3.86    4.52
  -6 -19   3    7.30    4.64
   6 -19  -3  -13.03   35.63
  -6  19  -3    4.51   14.42
  -6 -19  -4   23.29   67.81
   6  19  -4   -1.50    3.56
  -6 -19  -4   14.14    8.79
  -6 -19  -4  -38.67   22.68
  -6 -19  -4    9.65    4.06
   6  19  -4  -29.17   19.78
   6 -19   4   22.27   21.05
  -6 -19   4    3.93    4.38
   6 -19  -4  -21.66   36.22
  -6 -19   4    9.76    7.45
   6 -19  -4   -5.21    3.51
  -6  19  -4   -2.01   14.40
   6 -19  -4   11.38   16.31
  -6 -19   4  -24.82   20.50
  -6 -19  -5   13.23    5.61
   6 -19   5   34.25   27.50
  -6 -19  -5   21.71    9.08
   6  19  -5   -9.35   25.84
  -6 -19  -5  -19.44   67.90
   6  19  -5    5.14    5.07
  -6 -19  -5    9.10   30.08
   6 -19  -5  -30.16   19.89
  -6 -19   5   18.53    7.56
  -6 -19   5   22.69   24.11
  -6  19  -5  -13.02   15.62
   6 -19  -5   34.88   36.59
  -6 -19  -6   29.49   10.53
  -6 -19  -6   -1.99   42.41
   6  19  -6   10.84   26.33
   6  19  -6    8.96    6.04
   6 -19   6   27.61   31.26
  -6 -19  -6  -13.28   72.25
  -6 -19  -6   14.80    4.78
   6 -19  -6   17.40   24.87
  -6  19  -6    2.97    3.40
  -6  19  -6   -1.53   18.64
  -6 -19   6   23.70    9.77
   6 -19  -6   11.47   39.63
  -6 -19   6  -34.46   31.44
   7  19   0   10.36    7.66
  -7 -19   0   25.31    5.82
  -7 -19   0   52.33   15.10
   7  19   0  -14.57   22.22
   7 -19   0    9.67    9.58
  -7 -19   0   -7.77   19.02
   7 -19   0   37.93    8.79
   7 -19   0   11.67   14.04
  -7 -19  -1   63.73   16.46
   7 -19   1   17.50   18.35
   7  19  -1   13.98   24.65
   7 -19   1   80.40   12.70
  -7 -19  -1   74.21   11.72
   7  19  -1   64.57   14.62
   7 -19  -1   56.96   15.94
  -7  19  -1   55.38   18.91
   7 -19  -1   49.54   18.83
   7 -19  -1  -30.69   38.62
  -7 -19   1   67.66   10.82
   7  19   1   12.57   22.89
   7 -19  -1   71.34   13.97
   7  19   1   52.29   14.77
  -7 -19   1   56.78   15.97
   7 -19   2   54.35   21.76
  -7 -19  -2   53.94    9.60
   7 -19   2   56.19    9.74
   7  19  -2   38.73   11.02
  -7 -19  -2   64.97   27.03
   7  19  -2   -0.85   23.32
  -7 -19  -2   38.24   13.07
  -7 -19   2   42.40   15.06
   7 -19  -2   22.44   16.21
   7 -19  -2   36.55   11.28
   7  19   2   21.97   10.92
   7 -19  -2   44.87   13.42
  -7 -19   2   36.04   21.89
  -7  19  -2   22.16   16.58
   7 -19  -2   27.98   38.47
  -7 -19   2   39.74    7.90
  -7 -19  -3  147.08   74.96
  -7 -19  -3   55.84   12.07
   7  19  -3   41.14   12.58
  -7 -19  -3   76.32   12.78
   7 -19   3   10.63   23.71
  -7 -19  -3   65.41   17.76
   7 -19   3   77.09   12.87
   7  19  -3   71.15   30.13
   7 -19  -3   67.87   15.95
   7 -19  -3   64.35   15.92
  -7 -19   3   77.39   10.51
  -7 -19   3   80.70   20.10
  -7  19  -3   43.07   19.99
   7 -19  -3    5.11   36.51
   7 -19  -3   39.55   20.11
  -7 -19  -4   24.70   12.48
  -7 -19  -4   13.00    8.21
   7 -19   4    5.34   25.29
  -7 -19  -4  -53.68   70.51
   7  19  -4   24.15    7.40
  -7 -19  -4    0.96   25.54
  -7 -19  -4   10.22    6.27
   7  19  -4   37.01   27.11
  -7  19  -4    6.50   17.49
  -7 -19   4   22.73    6.37
   7 -19  -4   38.89   35.88
  -7 -19   4   40.62   14.65
   7 -19  -4  -26.64   20.47
   7 -19  -4   31.38    9.62
  -7 -19   4  -23.49   21.42
  -7 -19  -5   69.88   18.16
  -7 -19  -5   16.11   72.73
  -7 -19  -5   38.80    9.09
  -7 -19  -5  -68.00   40.11
   7  19  -5   10.40   31.43
   7 -19  -5   85.18   40.16
  -7 -19   5   43.26   14.26
  -7  19  -5   27.34   22.02
  -7 -19   5  -19.83   24.88
  -8 -19   0    7.20   20.42
   8 -19   0   -1.86   16.76
   8 -19   0   10.76    5.32
   8  19   0   14.14   23.58
  -8 -19   0    9.64    3.58
   8 -19   0    8.94   38.34
  -8 -19   0    2.46    6.66
   8  19   0    5.74    4.78
   8 -19   1    3.97    4.12
  -8 -19  -1   -3.80    2.48
  -8 -19  -1    5.54    3.55
   8  19  -1   21.51   26.26
   8 -19   1   21.66   20.23
   8  19  -1    2.91    5.30
  -8 -19  -1  -10.40   21.15
  -8 -19  -1   15.19    7.35
   8 -19  -1    2.49    7.08
  -8 -19   1    8.81    5.44
  -8 -19   1    2.78    2.92
   8 -19  -1    4.98    5.90
   8  19   1    0.12    4.67
   8 -19  -1   -7.86   14.03
   8 -19  -1  -35.74   34.32
  -8 -19   1   -2.79   18.36
   8 -19   2  -44.44   20.83
   8  19  -2   -3.57    3.46
   8  19  -2   26.40   27.41
  -8 -19  -2    5.24    3.67
   8 -19   2    5.93    3.80
  -8 -19  -2  -56.22   70.42
  -8 -19  -2   13.10    6.75
  -8 -19  -2    4.98    3.05
   8 -19  -2   -6.22    5.31
   8 -19  -2   30.27   17.43
   8  19   2    3.05    5.15
  -8 -19   2   11.63   15.28
   8 -19  -2  -45.24   30.96
  -8 -19   2    4.80    3.28
   8 -19  -2    0.03    4.70
  -8 -19   2   -4.22    6.71
  -8  19  -2  -24.08   15.95
   8 -19   3  -29.28   22.67
  -8 -19  -3   -0.54    4.07
  -8 -19  -3    5.24    3.10
  -8 -19  -3 -233.28   71.74
   8  19  -3    4.38    5.55
   8  19  -3   46.48   28.27
  -8 -19  -3   15.59    9.62
  -8 -19   3    1.10    7.08
   8 -19  -3   -4.03    4.27
   8 -19  -3   -4.67   30.02
  -8 -19   3  -23.13   26.92
   8 -19  -3    9.27   17.23
  -8  19  -3    3.04   17.81
   8 -19  -3    1.16    4.98
  -8 -19   3   -0.05    3.34
  -8 -19  -4    3.43    3.83
   8  19  -4   22.86   29.82
  -8 -19  -4   -2.07    7.85
  -8 -19  -4  112.93   86.54
  -8 -19  -4  -38.62   26.29
   8  19  -4   -1.48    4.05
  -8 -19  -4    5.02    4.16
  -8 -19   4    6.10    6.63
   8 -19  -4   15.35   32.26
  -8 -19   4    8.12    3.77
  -9 -19   0   30.41    6.28
   9  19   0  -51.60   29.92
  -9 -19   0   33.42   16.79
   9  19   0   11.22    7.92
  -9 -19   0  -22.62   20.41
   9 -19   1    9.01   20.65
  -9 -19  -1   43.91   15.47
   9 -19   1   58.04    9.97
   9  19  -1   41.93   12.40
   9 -19   1   28.21   39.36
   9  19  -1   -0.09   31.55
  -9 -19  -1   41.14    8.05
   9  19   1   31.72   11.17
  -9 -19   1    3.18   18.29
   9 -19  -1   58.57   11.74
  -9 -19   1   46.88   17.88
   0  20   0  448.44   65.55
   0 -20   0  335.13   58.88
   0 -20   0  418.56   52.07
   0  20  -1   82.46   19.02
   0 -20   1  155.73   35.00
   0  20   1   80.85   24.73
   0 -20  -1  133.50   18.34
   0 -20   1  141.75   17.63
   0  20  -1  118.91   30.05
   0 -20  -1   81.07   27.39
   0  20  -2   65.09   16.31
   0 -20   2  111.28   14.29
   0 -20  -2  127.17   30.25
   0  20  -2   81.54   24.33
   0 -20  -2  109.34   19.99
   0 -20   2   85.44   22.26
   0  20   2   96.26   25.89
   0 -20  -3   -1.23   17.55
   0  20  -3   13.89   15.09
   0 -20  -3   16.67    6.67
   0 -20   3    8.25   10.38
   0  20  -3    5.01    4.67
   0 -20  -3    4.20    9.59
   0 -20  -4  112.29   20.55
   0  20  -4  164.86   35.61
   0  20  -4   90.85   18.30
   0 -20  -4   59.68   28.55
   0 -20   4   78.08   39.57
   0 -20  -4  146.06   85.25
   0  20  -5   12.72   15.87
   0 -20  -5   23.55   55.99
   0 -20  -5   20.62    8.21
   0  20  -5   11.01    6.15
   0 -20   5   67.48   25.10
   0 -20  -5  -14.78   20.05
   0 -20   6   67.23   28.95
   0  20  -6   42.18   23.55
   0 -20  -6   -5.81   22.10
   0 -20  -6  109.24   61.67
   0 -20  -6   70.43   14.53
   0  20  -6   42.40   10.69
   0 -20  -7 -126.88   54.14
   0 -20  -7   20.93    7.64
   0  20  -7  -16.95   28.14
   0 -20  -7   23.37    7.99
   0 -20  -7  -23.28   24.39
   0  20  -7   12.85    6.74
   0 -20   7   15.04   26.61
   0 -20   8  -35.97   33.19
   0  20  -8   36.31   28.11
   0 -20  -8   42.27   11.49
   0 -20  -8   51.60   44.47
   0 -20  -8 -124.84   68.48
   0 -20  -8   36.15   10.07
   0  20  -8   25.85    8.65
  -1 -20   0   15.66    5.32
   1 -20   0  -28.56   11.45
  -1 -20   0   -8.47   12.00
   1  20   0    8.05    4.03
   1  20   0   12.98   16.87
  -1  20   0    9.81    4.10
  -1  20   0   10.77   12.57
   1 -20   0   -1.56    3.51
   1 -20   1   -0.16   11.14
  -1 -20  -1    8.27   16.16
  -1  20   1   -9.74   13.43
   1 -20   1   -0.93    3.42
  -1 -20  -1   -0.67    4.33
   1  20  -1    9.03    5.28
   1  20  -1    5.53   20.57
  -1  20  -1    8.12   14.47
  -1  20  -1    6.80    4.33
   1  20   1    3.47    2.91
   1  20   1  -17.10   13.01
   1 -20  -1    8.82    5.40
  -1 -20   1   -8.59    9.60
  -1 -20   1    9.23    2.92
   1 -20  -1  -16.67   15.24
   1 -20   2   14.05    3.88
  -1  20   2    8.16   13.94
   1  20  -2   10.98    5.27
  -1 -20  -2   -1.97   16.29
   1 -20   2   -9.53   12.03
   1  20  -2    6.22   15.39
  -1 -20  -2    2.15    4.73
  -1 -20  -2    3.19    3.13
  -1 -20   2    6.07    3.77
   1 -20  -2  -18.87   12.55
  -1  20  -2    3.85    4.52
  -1 -20   2   -8.01   12.61
   1  20   2    6.81   15.55
  -1  20  -2   -3.28   12.74
   1 -20  -2    5.88    5.67
   1 -20   3   -4.68   16.12
   1  20  -3    8.26   15.49
  -1 -20  -3    4.17    4.50
   1 -20   3    4.84    2.76
  -1 -20  -3   34.86   21.00
   1  20  -3   -3.37    3.61
   1 -20  -3    1.99    5.34
  -1 -20   3   10.26   12.42
   1 -20  -3   17.11   15.16
  -1  20  -3   -3.45   13.30
  -1  20  -3   -0.11    3.22
  -1 -20  -4    7.78    4.00
   1 -20   4   -0.61   16.17
   1  20  -4   -0.25   15.70
  -1 -20  -4   51.49   56.77
   1  20  -4    2.47    3.96
  -1 -20  -4   56.60   32.18
  -1  20  -4   21.16   15.42
   1 -20  -4    5.97    3.85
   1 -20  -4   -9.02   24.92
   1 -20  -4    4.93   47.76
  -1 -20   4  -15.99   33.87
  -1  20  -4    3.75    4.61
  -1 -20  -5   20.82   23.51
   1 -20   5   -5.18   37.19
  -1 -20  -5   12.50    5.16
  -1 -20  -5   81.77   78.62
   1  20  -5    2.59   13.39
   1 -20  -5    3.08   19.63
  -1  20  -5    3.97    5.37
  -1  20  -5   11.50   13.84
   1 -20  -5   12.42    5.07
  -1 -20   5    2.45   23.61
   1 -20  -5    2.24   48.68
  -1 -20  -6   38.59   38.19
  -1 -20  -6    0.00    4.31
   1 -20   6    4.70   20.97
  -1 -20  -6  -47.66   53.95
   1  20  -6   -1.95    3.43
   1  20  -6  -10.48   17.57
  -1  20  -6   -4.52    3.39
   1 -20  -6  -92.59   46.02
   1 -20  -6    8.77   23.02
   1 -20  -6    7.71    4.02
  -1 -20   6   10.54   24.26
  -1  20  -6  -17.15   16.11
   1  20  -7  -13.96   24.21
  -1 -20  -7   15.64   62.81
   1 -20   7    6.97   26.88
  -1 -20  -7    2.29    4.58
  -1 -20  -7   -0.38    4.10
  -1 -20  -7   -0.78   31.06
   1  20  -7   -5.73    2.34
  -1 -20   7  -45.11   24.89
   1 -20  -7  -26.41   62.31
  -1  20  -7   11.27   20.87
   1 -20  -7  -15.02   38.28
   1 -20  -7    5.64    5.69
  -1  20  -7   -1.51    4.15
  -1 -20  -8  -18.41   31.55
   1  20  -8   -1.56    3.96
  -1 -20  -8    5.79    5.37
  -1 -20  -8  -11.94   54.98
   1  20  -8  -13.73   24.65
  -1 -20  -8   -8.66    4.19
   1 -20  -8  -35.29   26.26
   1 -20  -8  -39.61   52.82
  -1 -20   8   33.45   37.60
  -1  20  -8   24.54   26.03
  -1  20  -8   -3.39    3.68
   1 -20  -8   -0.07    5.46
  -2  20   0   48.28   16.87
   2  20   0   13.11   16.65
   2 -20   0   76.78   17.79
   2  20   0   63.72   13.34
  -2 -20   0   42.77   18.23
   2  20  -1   54.47   25.03
  -2 -20  -1   51.11   13.92
   2  20  -1   45.25   12.45
  -2 -20  -1   50.66   11.06
   2 -20   1   46.96   17.59
   2 -20   1   70.90   12.07
  -2  20   1   32.12   18.25
  -2 -20  -1  111.32   35.31
   2  20   1   33.63   11.08
  -2  20  -1   39.39   11.00
  -2  20  -1   31.17   17.67
   2 -20  -1   96.41   15.98
  -2 -20   1   76.88   11.71
  -2 -20   1   67.43   20.92
   2 -20  -1   38.31   16.13
   2  20   1   61.27   22.16
  -2 -20  -2  142.99   27.53
  -2 -20  -2  121.21   32.98
  -2 -20  -2  185.59   23.43
   2  20  -2  117.92   24.02
   2 -20   2  102.56   28.42
  -2  20   2  158.21   32.84
   2 -20   2  166.51   21.02
  -2 -20   2  173.11   20.91
   2  20   2  118.05   31.17
   2 -20  -2  166.71   31.32
   2 -20  -2  186.17   29.06
  -2  20  -2  127.92   31.72
  -2 -20   2   99.61   28.25
   2 -20   3   94.62   13.77
   2  20  -3   16.34   21.80
   2 -20   3   53.13   19.89
  -2 -20  -3   70.36   15.19
  -2 -20  -3   81.57   43.98
   2  20  -3   61.02   13.00
  -2 -20   3   49.03   19.42
   2 -20  -3   47.07   18.79
   2 -20  -3   28.24   45.71
  -2  20  -3   30.35   10.08
  -2  20  -3   25.81   17.25
   2 -20  -3   48.15   13.74
  -2 -20  -4  124.01   21.59
   2 -20   4   96.01   27.67
   2  20  -4   48.64   26.38
  -2 -20  -4  110.88   56.69
   2  20  -4   83.07   16.52
  -2 -20  -4  188.70   53.67
   2 -20  -4    6.32   47.03
  -2  20  -4   41.41   21.87
  -2 -20   4  137.61   32.78
   2 -20  -4   65.40   25.95
   2 -20  -4   90.19   16.79
  -2  20  -4   83.78   15.92
  -2 -20  -5   29.01   11.15
  -2 -20  -5   28.34   64.98
   2  20  -5  -12.95   14.59
   2  20  -5   24.29    7.11
  -2 -20  -5    1.31   24.08
   2 -20   5  -26.58   16.44
   2 -20  -5   34.95   49.41
   2 -20  -5   -8.92   19.46
  -2 -20   5    1.27   15.77
  -2  20  -5  -14.70   11.15
  -2  20  -5   25.30    7.44
   2 -20  -5   16.91    6.82
   2  20  -6   55.44   11.78
  -2 -20  -6   46.75   11.17
  -2 -20  -6   94.56   65.04
   2  20  -6   26.69   20.68
  -2 -20  -6   47.75   13.61
  -2 -20  -6  -17.61   25.86
   2 -20   6   46.38   26.91
   2 -20  -6   48.31   10.24
  -2 -20   6   47.87   23.65
  -2  20  -6   36.54   19.81
   2 -20  -6   63.47   51.66
  -2  20  -6   44.72   10.69
   2 -20  -6    3.38   31.42
  -2 -20  -7   27.15   58.17
  -2 -20  -7   25.41    8.69
   2  20  -7   46.31   31.75
   2  20  -7   25.36    8.07
  -2 -20  -7   37.92   31.59
  -2 -20  -7   12.30    8.63
  -2  20  -7   30.60    8.34
  -2 -20   7    8.79   30.80
   2 -20  -7   17.43    7.71
   2 -20  -7   42.83   29.15
   2 -20  -7   26.83   52.23
  -2  20  -7   24.39   21.74
  -2 -20  -8  -97.97   69.79
  -2 -20  -8   35.79   12.48
   2 -20   8    0.73   35.89
  -2 -20  -8  -25.38   72.47
   2  20  -8   36.59   27.36
   2  20  -8   35.00    9.25
  -2 -20  -8   52.91   12.33
  -2  20  -8   20.44   26.14
  -2 -20   8   36.30   34.57
   2 -20  -8  -66.55   29.52
   2 -20  -8   25.03    9.40
   2 -20  -8    4.05   54.30
  -2  20  -8   27.19    8.42
   3 -20   0  -17.20   11.40
   3 -20   0   -0.77    3.01
   3  20   0    9.08    5.90
   3  20   0    3.00   14.64
  -3  20   0    2.22   13.52
  -3 -20   0   14.08   16.89
  -3 -20   0    1.56    5.37
  -3 -20   0    7.07    3.68
  -3 -20  -1    6.26   16.43
  -3  20   1   -1.51   12.95
   3 -20   1   12.85   13.65
   3  20  -1    6.72   19.97
   3 -20   1    8.43    3.51
  -3 -20  -1    3.30    5.25
  -3 -20  -1    0.73    2.67
   3  20  -1    6.07    5.20
  -3  20  -1    7.74   11.27
   3  20   1   25.33   17.33
  -3 -20   1   -1.42   12.47
  -3 -20   1    0.67    5.49
   3 -20  -1    7.33   14.18
  -3 -20   1    3.83    2.43
   3 -20  -1    0.95    4.50
   3  20   1    8.92    5.48
   3  20  -2   -6.26   15.65
  -3 -20  -2    6.56    4.75
   3 -20   2    0.78   12.37
   3 -20   2    9.88    3.05
   3  20  -2    3.89    4.49
  -3 -20  -2   53.05   29.67
  -3 -20  -2    3.10    3.53
  -3  20  -2   -1.02    2.09
   3  20   2    6.96    3.63
  -3  20  -2  -11.23   12.72
  -3 -20   2    5.24    2.69
   3 -20  -2   20.03   13.59
   3 -20  -2    0.78    5.43
   3  20   2    6.47   17.06
  -3 -20   2  -13.00   10.89
   3  20  -3    1.54   17.16
   3  20  -3   -6.26    3.10
   3 -20   3  -15.72   15.33
  -3 -20  -3    7.33    4.37
   3 -20   3   12.15    5.25
  -3 -20  -3   12.07   43.83
  -3  20  -3   10.56   13.79
  -3  20  -3    9.46    4.32
   3 -20  -3   -2.00   15.03
   3 -20  -3    0.19    5.70
  -3 -20   3   -4.02   12.32
   3 -20  -3   -1.10   42.07
  -3 -20  -4  108.59   98.28
   3  20  -4  -33.62   15.82
  -3 -20  -4   24.97    8.28
   3  20  -4   -2.24    3.52
   3 -20   4  -11.16   16.19
  -3 -20  -4   30.95   22.49
  -3 -20   4  -11.61   18.06
  -3  20  -4    1.25    4.21
   3 -20  -4  -45.57   38.47
  -3  20  -4   30.78   19.36
   3 -20  -4   -6.64   18.33
  -3 -20  -5   -8.02   23.92
  -3 -20  -5   27.11    8.81
  -3 -20  -5    4.55   63.86
   3  20  -5   -2.86    3.06
   3 -20   5   14.30   29.03
   3  20  -5   12.79   17.55
   3 -20  -5  -46.74   41.11
  -3 -20   5    1.75   19.86
  -3  20  -5   -2.53   16.54
   3 -20  -5    7.82    3.48
  -3  20  -5    0.09    4.27
  -3 -20  -6   56.16   68.57
  -3 -20  -6    9.02    4.93
   3  20  -6  -12.31   18.92
   3  20  -6    2.53    4.58
  -3 -20  -6   24.21   31.11
  -3 -20  -6    0.06    4.81
   3 -20   6   -6.69   29.15
  -3 -20   6  -24.60   22.54
   3 -20  -6   38.58   23.78
  -3  20  -6    0.83    4.43
   3 -20  -6  -53.37   39.43
  -3  20  -6    6.40   17.71
  -3 -20  -7  -23.05   60.57
   3  20  -7   -0.04    3.87
   3  20  -7  -10.71   22.73
  -3 -20  -7  -22.35   41.85
  -3 -20  -7   15.00    6.84
  -3 -20  -7   12.49    5.85
   3 -20   7    4.04   30.01
  -3  20  -7  -28.66   20.01
   3 -20  -7   -0.97   47.90
  -3 -20   7   15.20   30.29
  -3  20  -7   -4.15    3.61
   3 -20  -7  -20.67   24.14
   3  20  -8   -0.82    3.74
  -3 -20  -8    1.51    5.43
   3  20  -8   12.39   26.09
  -3 -20  -8   -3.88   76.19
  -3 -20  -8   17.81    9.72
   3 -20   8  -36.96   34.68
  -3 -20  -8   30.91   38.34
  -3 -20   8   20.68   37.49
   3 -20  -8   -1.15   28.51
   3 -20  -8    1.45    5.64
   3 -20  -8  -39.20   52.46
  -3  20  -8   34.41   28.36
  -3  20  -8   -3.86    3.91
   4 -20   0   92.12   16.50
   4  20   0   73.66   22.88
  -4 -20   0   61.72   16.87
  -4 -20   0   98.37   12.79
   4 -20   0   83.36   21.49
  -4  20   0   54.95   20.38
   4  20   0   69.97   16.24
  -4 -20   0  111.26   28.28
  -4 -20  -1   54.81   15.34
  -4 -20  -1   38.55   19.73
   4  20  -1   49.18   12.99
   4 -20   1   59.41   19.38
   4 -20   1   59.69   11.10
   4  20  -1   20.34   17.97
  -4  20   1   15.15   15.58
   4 -20  -1   32.95   16.89
  -4 -20   1   40.10   12.71
   4 -20  -1   50.58   12.41
  -4  20  -1   39.52   17.51
  -4 -20   1  110.29   43.57
   4  20   1   49.35   21.32
  -4 -20   1   74.85   11.03
   4  20   1   48.82   12.57
  -4 -20  -2   93.93   20.11
   4 -20   2   57.66   21.07
   4  20  -2   68.03   15.97
  -4 -20  -2  118.45   19.52
   4 -20   2   85.26   11.65
  -4 -20  -2   16.99   24.50
   4  20  -2   40.47   24.55
   4  20   2   52.77   14.79
   4  20   2   33.54   22.04
  -4 -20   2   70.78   18.65
   4 -20  -2   92.55   23.33
  -4 -20   2   27.70   19.29
  -4 -20   2   96.49   12.08
   4 -20  -2   76.88   17.31
  -4  20  -2   44.34   18.92
  -4 -20  -3   35.37   11.37
   4  20  -3   38.40   10.58
  -4 -20  -3   45.87   32.47
   4 -20   3   13.62   14.94
   4  20  -3   11.62   20.72
   4 -20  -3   99.80   45.54
  -4  20  -3   26.04   15.82
  -4 -20   3    9.68   21.57
   4 -20  -3   34.56   19.60
  -4  20  -3   18.66    6.68
   4 -20  -3   25.26    9.93
  -4 -20  -4   50.71   40.44
   4  20  -4   -4.13   20.25
   4  20  -4   52.10   11.34
  -4 -20  -4   51.13   64.03
  -4 -20  -4  105.77   21.38
  -4 -20   4   14.88   14.03
  -4  20  -4   34.99    9.06
   4 -20  -4  -22.80   41.90
  -4  20  -4   21.77   15.25
   4  20  -5    7.29   20.13
   4 -20   5   15.09   24.54
  -4 -20  -5   -1.56   61.73
  -4 -20  -5   39.34   13.86
  -4 -20  -5   74.39   36.05
   4  20  -5   35.42    9.24
  -4 -20  -5   19.97    8.49
  -4  20  -5   21.48    7.42
  -4  20  -5   21.22   16.65
   4 -20  -5   35.08   40.53
   4 -20  -5   21.86   21.87
  -4 -20   5   -0.65   17.39
   4  20  -6   47.37   10.97
  -4 -20  -6    2.47   32.58
  -4 -20  -6   77.01  106.56
   4 -20   6  -28.18   26.71
  -4 -20  -6   64.55   15.88
   4  20  -6  -11.22   19.06
  -4 -20  -6   33.76    9.60
  -4  20  -6   21.28   19.48
  -4 -20   6   10.92   55.52
  -4  20  -6   40.98   10.08
   4 -20  -6  -29.19   39.81
   4 -20  -6   29.69   24.76
   4 -20   7  -15.61   32.20
   4  20  -7    3.18   22.29
  -4 -20  -7   20.24    7.53
  -4 -20  -7   10.14   10.64
  -4 -20  -7   57.73   33.33
  -4 -20  -7  -35.54   78.78
   4  20  -7    7.41    6.04
  -4  20  -7   14.10   23.56
   4 -20  -7   19.23   25.66
  -4 -20   7   -9.74   42.19
  -4  20  -7   13.77    6.74
   4 -20  -7  -26.79   46.93
  -5 -20   0    4.43    3.31
   5  20   0   19.85   18.81
   5 -20   0    5.42    4.73
  -5  20   0  -11.72   13.46
   5  20   0   14.46    6.08
  -5 -20   0    9.56   14.80
  -5 -20   0    0.76    5.61
  -5  20   1    4.95   14.62
  -5 -20  -1   -0.25   19.09
  -5 -20  -1   14.20    7.64
   5  20  -1   -6.04    2.17
  -5 -20  -1   -6.45    2.92
   5  20  -1    5.67   19.18
   5 -20   1   -0.87    2.61
  -5 -20   1   -2.66    2.44
  -5 -20   1    8.41    6.97
   5  20   1   -0.23    3.56
   5 -20  -1   -1.48    4.25
  -5 -20   1   10.85   16.38
   5  20   1    5.23   19.84
  -5  20  -1   -6.50   14.43
  -5 -20  -2   -0.06    3.59
  -5 -20  -2  -17.39   27.43
   5  20  -2   -1.67   22.06
  -5 -20  -2    7.29    4.94
   5 -20   2    6.87    3.39
   5  20  -2   -2.38    3.50
   5  20   2   11.96   25.36
   5 -20  -2   -0.55    4.62
   5  20   2   -4.53    3.75
  -5 -20   2    2.28    2.37
   5 -20  -2   45.00   46.92
  -5  20  -2    9.46   15.75
  -5 -20   2   -1.85   13.07
  -5 -20   2    3.13    6.22
  -5 -20  -3   15.26    9.21
  -5 -20  -3   19.71   23.07
   5  20  -3    1.21    4.37
   5 -20   3  -17.64   15.94
   5  20  -3  -30.64   20.52
  -5 -20   3    5.51    4.57
  -5 -20   3    8.65   19.34
   5 -20  -3    0.62   16.22
  -5  20  -3   -6.27   13.84
   5 -20  -3   -4.39   37.31
   5 -20  -3    2.13    5.19
  -5 -20  -4    4.93   66.39
  -5 -20  -4  -62.08   32.88
   5  20  -4   23.81   22.01
   5  20  -4   10.38    6.60
  -5 -20  -4    5.77    5.93
   5 -20   4   20.79   21.92
  -5 -20   4   16.15   19.71
  -5  20  -4   -1.91    2.13
  -5  20  -4  -26.14   14.54
  -5 -20   4    7.31    4.65
   5 -20  -4  -33.00   17.82
   5 -20  -4   -7.54   41.83
  -5 -20  -5   15.16    6.53
   5 -20   5  -15.49   24.59
  -5 -20  -5   20.95   35.55
   5  20  -5    5.44   23.40
  -5 -20  -5    9.80    3.97
   5  20  -5    1.36    5.22
  -5 -20  -5   -8.47   69.19
  -5 -20   5   39.94   21.21
   5 -20  -5   61.16   42.50
   5 -20  -5    3.09   21.56
  -5  20  -5   -7.42   16.92
  -5  20  -5    1.11    2.95
  -5 -20   5   10.70    5.45
  -5 -20  -6  -84.59   83.71
   5  20  -6    7.66   26.37
  -5 -20  -6    0.32    5.92
  -5 -20  -6    8.44    5.37
   5 -20   6  -15.20   28.84
   5  20  -6   -1.39    4.40
  -5 -20  -6  -22.54   39.28
   5 -20  -6  -21.26   23.68
  -5 -20   6   31.86   30.31
  -5  20  -6    4.72    4.60
   5 -20  -6  -18.14   40.31
  -5  20  -6   20.12   22.60
   5  20  -7   -1.97    3.65
   5  20  -7  -14.84   30.23
  -5 -20  -7   12.74    5.95
  -5 -20  -7  -38.60   39.89
  -5 -20  -7   -1.19   75.35
   5 -20   7   30.87   43.97
  -5 -20  -7   15.65    9.26
  -5  20  -7    2.75    4.52
   5 -20  -7   26.16   39.72
   5 -20  -7    6.64    5.11
  -5  20  -7  -31.12   21.51
  -5 -20   7   25.19   31.09
   6  20   0   -4.05   22.26
  -6 -20   0   52.33   14.90
  -6  20   0   25.98   16.94
   6 -20   0   56.82   12.13
  -6 -20   0   24.39   19.61
   6  20   0   32.32   11.07
  -6 -20   0   60.06    9.93
   6 -20   1   18.49    7.06
  -6 -20  -1   24.52    9.90
   6  20  -1    6.95   21.33
  -6 -20  -1   -7.52   21.73
  -6 -20  -1   28.73    7.08
   6  20  -1   13.16    7.57
   6  20   1    4.56   23.01
  -6  20  -1   25.00   15.68
  -6 -20   1    3.63   15.11
   6 -20  -1   14.10    7.39
   6  20   1   16.68    8.67
  -6 -20   1   25.18    6.16
  -6 -20   1   16.76   10.54
   6  20  -2   56.17   13.32
   6  20  -2   55.06   22.70
   6 -20   2   45.24    9.09
  -6 -20  -2   71.31   12.27
  -6 -20  -2   34.89   13.18
  -6 -20  -2    1.54   24.05
  -6 -20   2   48.24   17.00
  -6 -20   2   -4.21   20.07
   6  20   2   20.92   10.83
  -6 -20   2   55.44    9.31
  -6  20  -2   24.12   16.32
   6 -20  -2  -57.16   40.96
   6 -20  -2   53.87   13.10
  -6 -20  -3  -19.63   69.91
  -6 -20  -3   18.28   11.96
  -6 -20  -3   16.50   29.98
   6  20  -3   36.37   24.09
   6 -20   3    5.60   20.13
   6  20  -3   24.33    8.68
  -6 -20   3   26.37   10.44
   6 -20  -3   22.71   14.64
   6 -20  -3   56.55   42.99
   6 -20  -3   15.56   18.20
  -6  20  -3   -1.54   16.96
  -6 -20   3   17.79   14.82
  -6 -20  -4   49.62   76.62
   6  20  -4   12.47   29.01
  -6 -20  -4  -14.44   31.70
  -6 -20  -4   51.08   10.67
  -6 -20  -4   29.19   11.84
   6 -20   4  -17.86   23.02
   6  20  -4   44.14   10.31
   6 -20  -4   30.76    9.83
   6 -20  -4   28.16   20.77
  -6 -20   4   35.68   12.06
  -6  20  -4   33.65   18.41
   6 -20  -4    7.09   42.04
  -6 -20   4    4.22   18.09
   6  20  -5   34.04    9.42
  -6 -20  -5  -33.54   42.99
  -6 -20  -5   25.08    8.21
   6 -20   5  -11.99   27.76
  -6 -20  -5   46.15   16.39
  -6 -20  -5  104.02   88.06
   6  20  -5   34.70   26.98
   6 -20  -5   59.01   45.54
   6 -20  -5   50.37   24.67
  -6  20  -5   33.97   18.34
  -6 -20   5   39.96   13.38
  -6 -20   5  -12.48   18.88
  -6 -20  -6 -108.00   71.81
  -6 -20  -6   89.11   39.34
   6  20  -6   13.18   32.08
  -6 -20  -6   56.58   16.39
  -6 -20   6  -21.81   28.86
   6 -20  -6   81.96   43.18
  -6 -20   6   53.08   15.30
   7  20   0   49.21   26.70
   7 -20   0    1.05    4.51
  -7 -20   0   15.88    7.17
   7  20   0    2.16    5.50
  -7 -20   0   24.73   14.30
   7 -20   0    2.36   13.98
  -7 -20   0    8.12    3.14
   7 -20   1   -7.88   17.35
   7  20  -1    7.12   23.19
  -7 -20  -1    4.19    5.87
  -7 -20  -1  -15.49   14.74
  -7 -20  -1    4.20    3.68
   7 -20   1    7.90    4.19
   7  20  -1   10.24    6.38
  -7 -20   1    7.48    3.83
  -7  20  -1   -9.84   14.73
   7 -20  -1    4.65    6.05
  -7 -20   1    7.57    4.83
   7  20   1    0.59    4.09
   7 -20  -1  -12.36   15.21
  -7 -20   1   18.05   19.16
   7 -20  -1   37.55   44.59
   7  20   1   15.99   23.82
   7 -20   2   19.17   20.11
   7  20  -2   -2.97    4.10
  -7 -20  -2    3.72    7.47
  -7 -20  -2    3.57    3.27
   7  20  -2   24.53   27.60
   7 -20   2    8.63    3.99
  -7 -20  -2   -4.15   24.55
   7  20   2    1.13    5.06
  -7 -20   2  -11.28   20.02
  -7 -20   2   12.81    7.60
   7 -20  -2   -0.96    4.35
   7 -20  -2    2.17    4.40
   7 -20  -2   -1.64   15.96
  -7 -20   2    8.97    3.66
   7 -20  -2  -46.93   38.89
  -7  20  -2   12.61   16.09
   7  20  -3   -3.85    3.36
  -7 -20  -3  -73.20   69.48
  -7 -20  -3   -0.41   22.04
   7  20  -3  -38.84   23.94
  -7 -20  -3    4.45    3.10
  -7 -20  -3   16.28    9.20
   7 -20   3  -13.24   22.97
   7 -20  -3   -3.46   37.08
   7 -20  -3  -25.35   18.28
  -7  20  -3    3.50   15.83
  -7 -20   3   17.25    9.44
   7 -20  -3   -3.38    5.53
  -7 -20   3  -14.41   18.85
  -7 -20   3   11.12    3.74
  -7 -20  -4   -0.32    8.30
  -7 -20  -4  -25.81   33.74
   7  20  -4  -42.89   29.93
   7 -20   4    0.47   27.06
   7  20  -4   -8.19    2.87
  -7 -20  -4    3.52    5.19
  -7 -20  -4    7.51   80.60
   7 -20  -4    7.35   22.34
   7 -20  -4  -27.66   37.50
  -7 -20   4   -6.74    5.84
  -7  20  -4   -7.10   17.57
   7 -20  -4    1.81    4.91
  -7 -20   4   -4.72   19.78
  -7 -20  -5   16.34    8.35
   7  20  -5    2.84    4.94
  -7 -20  -5  -77.89   87.54
  -7 -20  -5   10.67    5.09
   7  20  -5   10.18   31.09
  -7 -20  -5    6.53   33.77
  -7 -20   5  -34.64   27.58
   7 -20  -5    2.71   41.58
  -7 -20   5   -1.41    7.53
   8  20   0   45.22   13.29
  -8 -20   0   47.84    8.66
  -8 -20   0   16.06   13.06
   8  20   0   45.67   30.84
   8 -20   0   53.39   11.11
   8 -20   0   29.98   19.60
   8 -20   0   28.75   45.67
   8 -20   1   24.56   21.27
  -8 -20  -1   12.82    5.42
   8  20  -1   56.07   33.14
  -8 -20  -1    6.83   11.65
   8  20  -1   15.90    8.66
   8 -20   1   20.95    6.74
   8 -20  -1   28.81    8.54
   8 -20  -1   26.10   16.72
   8 -20  -1   -0.31   40.17
  -8 -20   1   27.10    6.18
  -8 -20   1   27.10   11.85
   8  20   1    3.36    6.98
  -8 -20  -2    9.97   29.53
   8 -20   2   39.75   26.65
  -8 -20  -2   21.34    7.16
   8  20  -2   46.35   28.92
  -8 -20  -2   25.07   12.36
  -8 -20  -2  171.18   88.90
   8  20  -2   39.48   10.90
  -8 -20  -2   43.89    7.98
   8 -20  -2   18.95    9.71
  -8 -20   2   14.69   11.81
  -8  20  -2   16.09   19.30
   8  20   2   20.42    9.33
  -8 -20   2   47.60    8.38
   8 -20  -2  -13.63   36.32
   8 -20  -2   -2.58   18.24
   8 -20  -2   30.57   12.15
  -8 -20  -3    9.96    5.94
  -8 -20  -3   34.43   90.31
   8  20  -3    4.15    6.22
  -8 -20  -3   24.08   15.08
   8  20  -3  -20.60   26.35
  -8 -20  -3   19.74    5.91
  -8 -20  -3   38.97   25.67
  -8 -20   3   29.55    6.74
   8 -20  -3    9.54   35.72
  -8 -20   3   -0.64    7.32
   8 -20  -3   22.46    9.78
   0 -21   0   16.58    4.49
   0  21   0    4.36    4.45
   0  21   0    3.54   15.14
   0 -21   0    4.71   13.49
   0  21  -1   27.78   22.31
   0 -21  -1    4.52    3.86
   0 -21   1    8.01   11.78
   0  21  -1    3.23    4.30
   0 -21  -1   20.52   16.02
   0  21   1    0.33   14.79
   0 -21   1   11.35    4.52
   0  21  -2   11.34    5.26
   0 -21   2   28.97   15.02
   0  21   2    8.99   17.27
   0  21  -2   -4.87   14.39
   0 -21  -2   12.24   33.12
   0  21  -3    4.43    5.01
   0 -21   3   -6.48    8.70
   0  21  -3    6.72   16.48
   0 -21  -3   -6.79   17.45
   0 -21  -3    7.07    4.13
   0 -21  -4   -9.64   20.99
   0  21  -4    3.55    5.40
   0 -21  -4   -0.85    3.96
   0 -21   4  -18.73   15.32
   0  21  -4    1.26   18.17
   0 -21  -4  -21.65   57.49
   0 -21  -5    7.55   23.91
   0  21  -5   -1.09   15.83
   0  21  -5    3.94    4.88
   0 -21   5  -11.37   42.54
   0 -21  -5   42.48   59.43
   0  21  -6   -2.88    4.44
   0 -21  -6   57.20   57.14
   0 -21  -6   -9.14   25.11
   0  21  -6    9.15   26.05
   0 -21  -6   13.46    4.91
   0 -21   6   -7.57   21.96
   0 -21  -7    6.04    5.54
   0 -21   7   29.98   30.10
   0  21  -7    1.69    4.56
   0 -21  -7   17.58   73.74
   0  21  -7    7.27   20.41
   0 -21  -7   -3.21    4.53
   0 -21  -7   19.25   27.71
   0 -21   8   69.69   53.04
   0  21  -8  -11.51   30.70
   0 -21  -8   91.50   65.24
   1  21   0   48.46   11.98
   1 -21   0   52.53   19.27
   1  21   0   49.76   25.62
  -1 -21   0  107.35   26.72
  -1  21   0   41.42   17.21
  -1  21   0   50.99   12.65
   1 -21   1   99.68   13.63
   1  21  -1   88.62   17.60
  -1 -21  -1  193.80   40.52
  -1  21   1   53.45   22.67
   1 -21   1  144.75   28.14
   1  21  -1   36.24   20.72
  -1 -21   1  101.44   26.66
  -1  21  -1   76.87   17.05
  -1 -21   1  138.76   23.59
   1 -21  -1   87.86   25.61
   1 -21  -1  153.05   21.14
  -1  21  -1   62.89   21.34
   1  21   1  100.12   27.88
   1  21   1   49.02   14.95
  -1  21   2   25.48   16.77
   1  21  -2   24.11    8.74
   1 -21   2   31.15   18.16
   1  21  -2   35.78   23.00
  -1 -21  -2   46.62   12.20
  -1 -21  -2   16.80   16.85
  -1 -21   2   15.49   20.47
  -1  21  -2   59.89   20.83
  -1  21  -2   29.56    9.15
   1  21   2   28.17   17.43
   1 -21  -2   21.37   18.27
   1  21  -3   42.16   33.03
   1  21  -3   41.42   11.88
   1 -21   3   64.73   22.43
  -1 -21  -3   47.58   23.84
  -1 -21  -3   67.49   14.89
  -1  21  -3   62.03   24.73
  -1 -21   3   44.16   17.73
  -1  21  -3   50.74   12.29
   1 -21  -3   56.64   23.18
  -1 -21  -4   48.00   12.53
  -1 -21  -4  -16.88   79.29
   1 -21   4   28.18   17.30
  -1 -21  -4    1.93   23.99
   1  21  -4   16.54   18.25
   1  21  -4   34.71   10.61
  -1  21  -4   21.63   18.39
   1 -21  -4   51.32   26.29
  -1 -21   4   25.88   18.53
   1 -21  -4   33.94   10.35
   1 -21  -4   45.76   51.70
  -1  21  -4   44.67   10.38
   1  21  -5   16.19   18.15
  -1 -21  -5   18.34   66.82
   1  21  -5   52.28   12.44
  -1 -21  -5   31.74   48.30
  -1 -21  -5   87.23   17.24
   1 -21   5   57.35   28.24
   1 -21  -5   78.40   15.15
   1 -21  -5  -27.07   51.50
  -1 -21   5  124.26   54.61
  -1  21  -5   76.53   13.72
   1 -21  -5   73.90   28.21
  -1  21  -5   26.90   17.77
   1 -21   6   23.85   33.52
  -1 -21  -6  -57.30   62.62
  -1 -21  -6   14.50    8.38
   1  21  -6   28.68    8.69
   1  21  -6   39.21   23.01
  -1 -21  -6   49.62   33.23
   1 -21  -6  -46.66   56.44
   1 -21  -6   43.43   10.16
  -1 -21   6  -15.66   21.12
   1 -21  -6   13.02   24.97
  -1  21  -6   19.61    7.71
  -1  21  -6   13.04   18.07
   1  21  -7   59.09   11.98
  -1 -21  -7   76.85   49.13
   1 -21   7   42.57   39.85
  -1 -21  -7   25.70   62.48
  -1 -21  -7   33.01   11.32
   1  21  -7  -11.14   27.40
  -1 -21  -7   17.74    8.23
   1 -21  -7   19.16    9.23
  -1  21  -7   33.82   23.84
   1 -21  -7  -25.64   55.71
  -1  21  -7   35.79    9.76
   1 -21  -7   41.67    9.70
  -1 -21   7   32.31   33.42
  -1 -21  -8   -7.75   69.42
  -1 -21  -8    8.26   33.28
  -1 -21  -8   10.87    8.84
   1  21  -8   25.40    7.97
  -1 -21  -8   25.68    9.13
   1  21  -8   33.02   29.16
   1 -21   8   25.65   37.64
  -1  21  -8   31.01   49.70
   1 -21  -8  -91.59   59.13
   1 -21  -8    5.80    5.10
   1 -21  -8   50.04   34.20
  -1 -21   8  -61.25   34.24
  -1  21  -8    5.38    6.16
   2  21   0    6.61    4.68
   2 -21   0   -5.84   12.06
  -2  21   0   19.63   14.70
  -2 -21   0  -13.23   14.14
   2 -21   0    8.16    4.72
   2  21   0   -0.23   15.09
  -2 -21  -1    4.80   17.04
   2  21  -1    0.91    4.53
  -2 -21  -1    7.63    5.91
   2  21  -1   -5.46   17.30
   2 -21   1    4.59    3.28
  -2  21   1  -17.66   14.33
   2 -21   1  -13.40   11.93
   2  21   1   13.94    5.82
  -2  21  -1    4.50    3.65
   2 -21  -1  -15.99   14.19
   2  21   1  -37.21   21.70
   2 -21  -1   -2.08    3.17
  -2 -21   1  -10.91   13.71
  -2  21  -1   -8.43   14.13
  -2  21   2  -28.74   12.83
  -2 -21  -2   -5.69   21.91
   2  21  -2   -3.92   15.26
  -2 -21  -2   14.40    8.50
   2  21  -2   -0.82    4.15
   2 -21   2   12.75   15.31
  -2 -21   2  -26.84   11.92
  -2  21  -2    8.63    4.60
   2 -21  -2   -8.46   19.05
  -2  21  -2    7.51   12.07
   2 -21  -2   -0.11    7.00
   2  21   2  -12.07   16.62
  -2 -21  -3   17.89   21.70
   2  21  -3    5.09    5.14
   2  21  -3  -47.11   26.83
   2 -21   3   -5.56   14.95
  -2 -21  -3    8.79    7.01
   2 -21  -3   -8.04   49.04
   2 -21  -3    2.73   15.45
  -2 -21   3  -14.39   13.39
  -2  21  -3   -0.39   14.17
  -2  21  -3    2.48    4.16
  -2 -21  -4   20.06   72.51
   2 -21   4   -8.98   15.32
   2  21  -4    3.79    5.01
   2  21  -4   -6.07   18.76
  -2 -21  -4    6.77    7.12
  -2 -21  -4  -30.37   20.56
   2 -21  -4  -22.06   18.01
   2 -21  -4    6.36    5.15
  -2  21  -4  -19.60   15.43
  -2 -21   4   13.92   15.63
  -2  21  -4    3.27    4.49
   2 -21  -4   -5.19   53.28
   2 -21   5   12.51   21.51
  -2 -21  -5   10.13   26.77
  -2 -21  -5   31.30   60.36
  -2 -21  -5   16.81    7.19
   2  21  -5  -28.63   31.14
   2  21  -5   -0.42    4.87
   2 -21  -5  -59.81   48.92
  -2  21  -5  -21.20   14.75
  -2 -21   5   27.49   24.68
  -2  21  -5   -3.10    3.39
   2 -21  -5   20.01   22.74
   2 -21  -5    6.63    5.46
  -2 -21  -6   10.63    4.74
   2  21  -6   -2.89    3.34
  -2 -21  -6  -31.47   61.02
   2  21  -6   -5.45   22.53
  -2 -21  -6   -3.18   26.25
  -2 -21   6  -15.71   23.91
   2 -21  -6   -9.65   52.80
  -2  21  -6   -0.02   18.44
  -2  21  -6   -0.84    4.54
   2 -21  -6   12.41    4.48
  -2 -21  -7   19.63   34.73
   2 -21   7   37.35   30.90
  -2 -21  -7  111.18   78.76
  -2 -21  -7    5.41    3.11
   2  21  -7   -3.16    3.61
  -2 -21  -7   10.55    7.99
   2  21  -7    1.38   34.16
  -2  21  -7   -5.69    3.97
  -2  21  -7  -27.88   20.15
  -2 -21   7   -8.48   29.03
   2 -21  -7  105.69   57.60
   2 -21  -7    8.37   26.09
  -2 -21  -8    1.65   72.89
   2  21  -8    2.47    5.35
  -2 -21  -8   27.29   85.03
   2  21  -8   51.54   30.26
   2 -21   8  -30.54   36.66
  -2 -21  -8   17.43    6.06
  -2 -21  -8    3.17    7.70
  -2  21  -8   36.62   26.09
   2 -21  -8    4.62    5.43
  -2 -21   8   78.98   39.06
   2 -21  -8   42.17   33.27
   2 -21  -8   64.96   60.08
  -3 -21   0    8.16   14.22
  -3  21   0  -13.79   14.21
   3  21   0   11.19   16.15
   3 -21   0   11.08    6.20
  -3 -21   0    9.00    7.39
   3  21   0   17.61    7.78
   3 -21   0   16.77   15.07
  -3 -21  -1   35.39   19.76
  -3  21   1   24.90   17.42
   3 -21   1   71.40   12.92
   3  21  -1   53.15   13.50
  -3 -21  -1   52.89   14.72
   3 -21   1   61.06   19.87
   3  21  -1   36.25   26.66
  -3 -21   1   74.51   18.06
   3  21   1   72.89   29.66
   3 -21  -1   49.36   20.05
  -3  21  -1   41.55   18.27
   3 -21  -1   74.73   15.27
  -3 -21   1   77.47   22.98
   3  21   1   41.92   13.22
   3  21  -2   16.21   19.82
   3  21  -2   30.72   10.36
  -3 -21  -2   45.46   25.25
   3 -21   2   37.95   16.64
  -3 -21  -2   70.84   16.20
  -3  21  -2   35.59    9.54
   3 -21  -2   62.71   22.87
   3 -21  -2   57.60   15.69
   3  21   2   34.20   11.54
   3  21   2   48.23   22.65
  -3  21  -2   45.82   19.30
  -3 -21   2   53.37   20.80
  -3 -21  -3  115.82   43.30
   3  21  -3   61.47   13.78
  -3 -21  -3   67.83   16.27
   3  21  -3   86.84   30.58
   3 -21   3   46.86   18.59
  -3  21  -3   67.55   13.92
   3 -21  -3   90.70   28.05
   3 -21  -3  -17.54   51.66
  -3  21  -3   50.44   18.66
  -3 -21  -4   65.60   26.07
  -3 -21  -4   63.82   14.85
   3  21  -4   33.23   10.40
   3 -21   4    9.66   18.37
   3  21  -4   62.33   36.29
  -3 -21  -4  -63.94   60.09
  -3 -21   4   52.41   22.40
  -3  21  -4   32.17    9.37
  -3  21  -4   42.34   23.35
   3 -21  -4   -0.15   48.39
  -3 -21  -5   38.04   29.29
  -3 -21  -5   50.39   70.51
   3  21  -5   40.48   11.36
  -3 -21  -5   59.02   14.37
   3  21  -5   32.54   24.45
  -3 -21   5   58.86   30.04
   3 -21  -5   28.10   28.06
  -3  21  -5   34.50   20.51
  -3  21  -5   48.06   11.09
   3 -21  -5   59.13   11.40
   3 -21  -5  -54.76   44.98
  -3 -21  -6    9.03    6.38
  -3 -21  -6   82.86  110.63
   3 -21   6    8.13   27.81
   3  21  -6   19.55    8.03
  -3 -21  -6   20.29   31.87
   3  21  -6   12.63   17.24
  -3 -21  -6   12.20    9.44
  -3  21  -6   27.25    8.47
   3 -21  -6   27.23   26.36
   3 -21  -6   36.18   51.14
  -3 -21   6   34.32   27.25
  -3  21  -6   -7.74   17.44
  -3 -21  -7   73.94   92.20
   3  21  -7   56.92   24.97
   3  21  -7   44.18   10.69
  -3 -21  -7   33.48   10.21
  -3 -21  -7  -27.62   38.32
   3 -21   7  -16.54   31.90
  -3 -21  -7   17.62   10.92
   3 -21  -7   46.81   54.96
  -3  21  -7   43.39    9.87
  -3 -21   7   32.75   34.66
  -3  21  -7   30.96   23.80
   3 -21  -7   29.24   29.89
  -4 -21   0  -12.66   14.73
  -4 -21   0    9.26    5.43
   4  21   0  -21.76   17.55
   4 -21   0    2.20   13.80
   4 -21   0    1.77    4.33
   4  21   0    9.81    5.31
  -4  21   0    2.37   13.30
  -4  21   1    2.38   13.16
   4 -21   1   -6.03   13.39
   4  21  -1   -9.14   17.48
  -4 -21  -1   19.85    8.82
   4  21  -1    4.30    5.19
   4 -21   1   -0.32    2.56
  -4 -21  -1   24.94   37.62
  -4 -21   1  -23.49   17.90
  -4  21  -1  -25.19   14.13
   4  21   1    6.84    4.26
  -4 -21   1   -2.86    3.50
   4 -21  -1   19.54   15.42
   4 -21  -1   -0.25    3.66
   4  21   1  -20.11   19.41
   4  21  -2    1.05    5.53
  -4 -21  -2   18.35    8.23
  -4 -21  -2   12.00   22.40
   4  21  -2   31.98   26.26
  -4  21  -2    6.66   14.05
  -4 -21   2    3.55    3.45
   4 -21  -2    2.05    5.56
   4  21   2   33.86   33.84
   4  21   2    0.47    5.20
  -4 -21   2  -61.14   32.57
  -4 -21  -3   19.46   20.00
   4  21  -3   13.85   21.94
   4  21  -3   -2.89    4.08
  -4 -21  -3    9.97    6.24
  -4  21  -3    1.02    3.36
  -4 -21   3   23.18   23.26
  -4  21  -3  -18.25   16.13
   4 -21  -3  -35.13   44.73
   4  21  -4   -7.28   20.48
  -4 -21  -4   -0.39   27.07
  -4 -21  -4    8.52    5.24
   4 -21   4   10.88   20.40
  -4 -21  -4   16.47   83.94
   4  21  -4    6.73    6.34
   4 -21  -4  -22.28   48.52
   4 -21  -4   -3.50   18.08
  -4 -21   4   31.67   22.93
  -4  21  -4   19.08   16.87
  -4  21  -4    2.06    3.38
   4  21  -5  -20.86   21.10
  -4 -21  -5  -19.02   28.27
   4  21  -5   -1.12    3.73
  -4 -21  -5    3.94    6.61
   4 -21   5   29.40   25.64
  -4 -21  -5    6.16   68.67
   4 -21  -5   12.48    5.49
  -4 -21   5   30.98   23.22
   4 -21  -5   -9.57   42.36
   4 -21  -5   17.59   21.69
  -4  21  -5   -2.13    3.52
  -4  21  -5    9.86   15.96
  -4 -21  -6   20.26    8.32
  -4 -21  -6   15.23   39.07
   4 -21   6  -12.99   28.26
   4  21  -6   -0.41    4.34
  -4 -21  -6    7.78    4.11
   4  21  -6   16.57   23.90
  -4 -21  -6  -50.06   79.77
   4 -21  -6  -27.49   45.18
  -4  21  -6    3.55    4.72
  -4  21  -6   20.53   19.06
   4 -21  -6  -11.64   25.77
  -4 -21   6  -52.85   30.31
  -4 -21  -7  -74.49   36.72
  -4 -21  -7    1.78    5.09
  -4 -21  -7   10.75   88.67
   4  21  -7  -13.24   22.61
   4 -21   7  113.16   41.11
   4  21  -7   -3.82    3.10
  -4 -21  -7   -3.92    6.33
   4 -21  -7   20.42   28.49
  -4  21  -7  -22.89   22.35
   4 -21  -7  -56.12   50.69
  -4 -21   7  -23.57   28.53
  -4  21  -7   -3.60    3.60
   5 -21   0   25.99    8.27
   5  21   0   24.80    9.37
   5 -21   0   -3.52   14.55
  -5  21   0   17.70   16.75
  -5 -21   0   23.14   24.11
   5  21   0    9.22   22.76
  -5 -21   0   25.65   11.64
  -5 -21  -1   91.46   19.03
   5 -21   1    5.73   15.35
  -5 -21  -1   75.42   27.75
   5  21  -1   50.32   13.10
   5  21  -1   53.03   26.59
  -5  21   1   23.42   18.32
  -5 -21   1   51.80   21.88
  -5 -21   1   86.19   20.33
   5  21   1   50.58   12.82
  -5  21  -1   39.90   19.27
   5  21   1   39.74   24.11
   5 -21  -1   63.63   13.80
   5 -21  -1   49.05   21.14
  -5 -21  -2   31.86   12.58
   5  21  -2  -15.61   20.47
  -5 -21  -2   20.28   24.96
   5 -21   2   40.41   20.76
   5  21  -2   14.28    8.09
  -5 -21   2   24.95    9.31
   5 -21  -2   41.66   48.27
   5  21   2   14.43    8.83
  -5 -21   2   14.41   14.78
   5 -21  -2    4.80   18.00
   5  21   2  -18.81   19.32
  -5  21  -2   22.22   15.83
   5  21  -3   53.33   11.70
  -5 -21  -3  -38.19   28.34
  -5 -21  -3   66.14   16.47
   5  21  -3   23.50   22.73
   5 -21   3   16.55   20.17
   5 -21  -3   37.10   54.09
  -5 -21   3   51.14   22.03
  -5 -21   3   38.00   12.82
  -5  21  -3    9.70   16.95
   5 -21  -3   40.19   23.30
   5 -21   4   30.69   23.51
  -5 -21  -4   27.94   20.50
  -5 -21  -4   48.29   15.58
  -5 -21  -4 -152.71   63.39
   5  21  -4   15.83   23.76
   5  21  -4   54.37   11.09
  -5 -21   4   31.76   11.47
   5 -21  -4  -50.99   45.37
  -5  21  -4  -15.37   16.72
  -5 -21   4   42.72   27.67
   5 -21  -4   23.79   18.89
   5  21  -5   88.87   44.30
  -5 -21  -5   96.29   22.24
  -5 -21  -5   67.51   12.84
   5 -21   5   41.42   30.06
  -5 -21  -5   32.47   32.95
  -5 -21  -5  -68.21   79.48
   5  21  -5   44.22   11.90
  -5 -21   5   53.71   15.44
  -5 -21   5   31.05   33.33
   5 -21  -5   47.08   27.56
  -5  21  -5    4.35   18.09
   5 -21  -5    0.06   43.28
  -5  21  -5   34.37    9.31
  -5 -21  -6   29.14    8.16
  -5 -21  -6   45.57   16.42
  -5 -21  -6  -16.40   46.03
   5 -21   6   90.61   36.75
   5  21  -6   31.04    9.77
   5  21  -6  -15.92   24.44
  -5 -21  -6  147.08   86.11
  -5  21  -6    9.78    6.23
   5 -21  -6  -27.07   26.16
  -5 -21   6  -40.92   26.17
  -5  21  -6   54.31   25.80
   5 -21  -6   60.34   48.41
   6 -21   0  -15.45   26.45
   6  21   0    1.34    3.40
  -6 -21   0    2.54    6.08
   6 -21   0   -0.63    3.65
  -6  21   0   -1.90   16.22
  -6 -21   0   -1.40   18.47
   6  21   0  -10.80   20.25
  -6 -21  -1  -25.53   21.37
   6 -21   1   -2.19   15.81
  -6 -21  -1    1.55    6.41
   6  21  -1  -12.32   20.99
   6 -21   1   -0.39    3.36
   6  21  -1    3.23    5.63
   6  21   1  -34.31   21.05
   6 -21  -1  -31.47   17.61
  -6 -21   1   25.31   21.34
   6 -21  -1   -0.15    4.24
  -6 -21   1   12.77    7.09
  -6  21  -1   12.60   17.02
   6  21   1    2.75    5.31
  -6 -21  -2    9.54   23.06
   6  21  -2    2.77    5.10
  -6 -21  -2    5.20    4.58
   6 -21   2  -21.28   16.45
   6  21  -2   19.63   20.93
   6 -21  -2   15.49   16.20
   6  21   2   -3.14    4.26
   6 -21  -2    8.54   44.38
  -6 -21   2  -18.19   19.11
  -6 -21   2   -6.66    4.87
  -6  21  -2    7.30   18.17
  -6 -21  -3   14.93    8.89
  -6 -21  -3   16.15   30.20
   6 -21   3    9.69   21.45
   6  21  -3    4.37    5.35
   6  21  -3   52.35   27.72
  -6 -21  -3  100.39   86.60
  -6 -21   3    4.43   18.15
   6 -21  -3    6.15   19.54
   6 -21  -3  -27.91   44.14
  -6  21  -3  -23.11   16.33
  -6 -21   3    2.08    5.66
  -6 -21  -4   22.89   28.30
   6 -21   4   13.03   26.80
  -6 -21  -4    9.70    7.94
   6  21  -4   -1.55    4.25
   6  21  -4   26.17   27.36
  -6 -21  -4  -99.98   81.47
  -6 -21  -4    7.72    4.66
   6 -21  -4  -21.72   21.49
   6 -21  -4    6.73    6.16
  -6  21  -4   22.04   19.71
  -6 -21   4   15.26   21.16
  -6 -21   4   12.18    5.99
   6 -21  -4  -40.85   44.05
  -6 -21  -5    0.00    4.03
  -6 -21  -5  -71.47   80.94
   6 -21   5  -11.97   30.21
   6  21  -5  -29.00   30.43
   6  21  -5   -1.99    4.02
  -6 -21  -5  -25.10   32.11
  -6 -21  -5   11.30    5.86
   6 -21  -5   64.26   52.37
  -6  21  -5   42.00   23.06
   6 -21  -5  -10.22   26.31
  -6 -21   5   54.26   30.05
  -6 -21   5    1.19    8.34
   7  21   0    1.67    5.54
   7 -21   0    4.54   16.52
   7  21   0  -32.83   27.03
  -7 -21   0    8.91    8.18
  -7 -21   0   19.83   24.73
  -7 -21   0   13.74    5.28
   7 -21   0   10.97    8.56
   7 -21   1   25.29   21.05
  -7 -21  -1   21.87   11.88
   7  21  -1   12.65    8.11
   7  21  -1  -26.44   24.75
  -7 -21  -1  -21.90   21.59
   7 -21  -1  -12.91   47.08
   7 -21  -1   54.83   18.23
  -7 -21   1   65.87   18.11
  -7 -21   1   12.00   24.64
   7  21   1   81.42   30.69
   7  21   1   11.07    7.98
   7 -21  -1   -8.35   17.30
  -7  21  -1   25.79   18.18
  -7 -21  -2    1.37    7.51
   7  21  -2   25.74   28.22
   7  21  -2    9.79    6.94
   7 -21   2  -13.48   22.08
  -7 -21  -2   -6.45   26.09
   7 -21  -2   -0.87   18.21
   7  21   2    8.11    7.99
   7 -21  -2   31.55   11.96
  -7  21  -2  -17.26   17.11
   7 -21  -2  -15.22   42.18
  -7 -21   2    5.72    9.08
  -7 -21   2  -33.53   21.42
  -7 -21  -3   -5.98   28.81
  -7 -21  -3   48.33   15.02
  -7 -21  -3 -136.90   79.58
   7  21  -3   42.16   30.47
   7  21  -3   54.10   12.82
   7 -21   3    8.00   24.98
   7 -21  -3   39.85   12.61
  -7 -21   3   32.38   13.28
   7 -21  -3   40.17   44.07
   7 -21  -3   34.48   21.46
  -7 -21   3    0.61   24.83
  -7  21  -3    8.57   18.77
  -7 -21  -4   29.49   12.16
   7  21  -4    6.08    6.74
  -7 -21  -4   -6.09   96.40
  -7 -21  -4   25.01   42.54
  -7 -21  -4   17.52    7.42
   7  21  -4  -10.22   30.67
  -7 -21   4   15.51   28.59
   7 -21  -4   22.35   44.14
  -7 -21   4   20.66   12.17
   7 -21  -4   13.02    7.51
  -8 -21   0   -3.71    6.63
  -8 -21   0   -2.72    3.45
   8  21   0  -20.58   33.49
  -8 -21   0   -4.71   19.53
   8 -21   0  -19.05   48.96
   8  21   0   -2.17    5.23
   8  21  -1    2.65    5.59
  -8 -21  -1   23.02   29.63
  -8 -21  -1    4.27    8.71
   8  21  -1  -48.88   29.41
  -8 -21  -1   -1.54    3.49
   8 -21  -1  -31.57   43.93
  -8 -21   1    0.59   17.74
   8  21   1    3.34    6.60
  -8 -21   1    3.29    3.59
  -8 -21   1   23.42   10.96
  -8 -21  -2  -94.26   90.86
  -8 -21  -2   -5.83    7.12
  -8 -21  -2  -12.52   23.35
  -8 -21  -2    5.93    3.70
   8  21  -2    2.41    4.93
   8  21  -2   41.35   31.52
  -8 -21  -2    7.48    5.44
  -8 -21   2  -27.36   16.08
   8 -21  -2   34.71   41.30
  -8 -21   2    4.27    3.47
  -8 -21   2   15.74    8.54
   8  21   2    5.26    6.34
   8 -21  -2    0.22    7.06
   0  22   0  164.43   36.35
   0  22   0  161.92   24.10
   0 -22   0  147.27   29.23
   0  22  -1   99.45   25.25
   0 -22  -1  104.35   33.08
   0  22   1   51.37   23.34
   0  22  -1   78.65   17.23
   0 -22   1   96.58   25.91
   0  22   2   45.07   21.93
   0  22  -2  113.38   27.54
   0  22  -2   60.21   14.88
   0 -22   2   86.95   30.14
   0 -22  -2   82.16   25.89
   0 -22  -3   -6.81   16.89
   0  22  -3   49.88   22.88
   0 -22  -3   42.06   11.45
   0  22  -3   29.53    9.17
   0 -22   3   27.53   13.02
   0 -22  -4   51.25   66.84
   0  22  -4   73.44   16.25
   0 -22   4  105.14   31.68
   0 -22  -4   32.55   24.24
   0 -22  -4  101.59   19.14
   0  22  -4  124.71   31.48
   0  22  -5   33.09    9.76
   0  22  -5   11.74   18.70
   0 -22   5   61.59   30.59
   0 -22  -5  -44.06   64.02
   0 -22  -5   47.06   12.50
   0 -22  -5   30.52   29.58
   0 -22  -6   36.26   32.80
   0 -22  -6   73.65   15.32
   0  22  -6   31.49   30.15
   0  22  -6   60.21   14.14
   0 -22  -6  -30.74   70.61
   0 -22   6   34.59   29.01
   0 -22   7   13.74   32.67
   0 -22  -7    1.30    4.05
   0  22  -7   43.80   24.31
   0 -22  -7  -25.20   64.11
   0 -22  -7   14.75    8.62
   0  22  -7    6.71    6.07
   1 -22   0   -5.75   12.30
  -1 -22   0   19.68   19.51
  -1  22   0   -5.72   14.85
   1  22   0   11.45   18.20
   1  22   0    6.10    4.00
  -1  22   0    7.25    4.73
   1 -22   1   -4.13   11.24
   1  22  -1   10.38    6.13
  -1 -22  -1   17.27   18.17
   1  22  -1   -6.87   13.11
  -1  22   1   17.00   16.37
   1  22   1    0.83   19.01
  -1 -22   1    8.50   11.69
   1 -22  -1    1.25   15.28
   1  22   1    6.71    4.46
  -1  22  -1   -1.83   12.35
  -1  22  -1    4.57    4.17
  -1 -22  -2   -0.95   20.23
   1 -22   2   -3.85   14.58
  -1  22   2  -39.77   20.70
   1  22  -2    5.56    4.58
  -1 -22  -2    1.96    5.26
   1  22  -2   15.10   17.58
  -1  22  -2  -11.96   13.93
   1  22   2    5.40   25.61
  -1  22  -2    0.15    3.34
   1 -22  -2   31.60   20.13
  -1 -22   2  -27.04   14.40
  -1 -22  -3    3.94    4.17
   1  22  -3   -2.80    3.53
  -1 -22  -3  -13.08   17.06
   1  22  -3  -21.88   18.59
   1 -22   3    7.55   17.70
  -1  22  -3   -1.05    4.07
  -1  22  -3  -14.05   16.97
   1 -22  -3    6.86    5.50
  -1 -22   3   -2.30   16.55
   1 -22  -3   -1.51   18.97
  -1 -22  -4   54.77   70.45
   1  22  -4   -1.35    4.77
   1 -22   4   -1.17   14.32
   1  22  -4  -17.98   17.33
  -1 -22  -4   11.01    5.23
  -1 -22  -4   33.38   23.76
  -1 -22   4   -1.74   24.86
   1 -22  -4   17.98    6.50
   1 -22  -4  -18.05   22.20
  -1  22  -4   18.98   20.49
  -1  22  -4    3.30    4.79
   1 -22  -4   -8.38   60.07
  -1 -22  -5   12.16    6.30
   1  22  -5  -23.20   17.48
  -1 -22  -5   37.65   50.25
   1  22  -5   -4.01    2.96
  -1 -22  -5 -112.35   93.08
   1 -22   5   13.68   18.65
  -1  22  -5   -1.60    4.86
   1 -22  -5  -26.91   55.52
   1 -22  -5  -20.97   22.84
   1 -22  -5   14.13    6.22
  -1 -22   5   -9.35   21.80
  -1  22  -5  -23.37   15.70
  -1 -22  -6   73.14   90.94
  -1 -22  -6  -43.91   36.61
   1  22  -6    7.62   22.75
   1 -22   6   33.97   28.34
  -1 -22  -6    6.40    6.23
  -1  22  -6   -3.95    3.97
  -1  22  -6   21.56   22.59
  -1 -22   6   23.55   29.45
   1 -22  -6   19.50   62.62
   1 -22  -6    4.93    4.32
   1  22  -7   -5.14    4.12
  -1 -22  -7    3.28    6.50
  -1 -22  -7   18.46  116.11
  -1 -22  -7   30.79   48.13
  -1 -22  -7   14.22    6.56
   1  22  -7  -52.45   26.56
  -1  22  -7  -18.83   22.82
   1 -22  -7  -21.69   28.66
   1 -22  -7   35.12   65.49
  -1  22  -7   -2.77    3.29
  -1 -22   7   43.53   58.38
   1 -22  -7    0.80    4.40
  -2  22   0   88.45   25.76
  -2 -22   0   90.90   30.01
   2  22   0   75.70   26.16
   2 -22   0  104.25   25.27
   2  22   0   72.08   17.50
  -2 -22  -1   60.30   14.65
   2  22  -1   29.71   10.36
  -2  22   1   15.96   17.24
  -2 -22  -1  109.23   33.65
   2 -22   1   54.15   18.91
   2  22  -1   80.91   28.69
   2  22   1   29.49   20.54
  -2 -22   1   34.72   14.95
  -2  22  -1    6.70   12.51
   2 -22  -1   43.46   21.14
  -2  22  -1   37.52   10.09
   2  22   1   30.69   10.28
  -2 -22  -2  222.78   51.53
  -2  22   2   62.79   24.99
   2  22  -2  104.99   28.99
  -2 -22  -2  143.55   26.71
   2 -22   2  165.32   33.35
   2  22  -2  136.12   24.18
  -2 -22   2  198.97   41.49
   2 -22  -2  107.43   27.76
   2  22   2  132.10   40.47
  -2  22  -2  107.35   21.37
  -2  22  -2  181.40   34.70
  -2 -22  -3   61.29   16.55
   2  22  -3   59.80   13.45
   2 -22   3   60.35   22.81
   2  22  -3   66.61   32.83
  -2 -22  -3   40.90   26.40
  -2 -22   3   18.47   17.98
   2 -22  -3  111.57   29.85
   2 -22  -3   16.45   58.55
  -2  22  -3   50.07   12.41
  -2  22  -3   27.58   20.16
   2  22  -4   84.44   26.84
   2 -22   4   63.68   22.36
  -2 -22  -4  113.55   20.87
   2  22  -4   77.95   16.72
  -2 -22  -4   31.78   71.52
  -2 -22  -4   25.59   37.38
  -2  22  -4   76.34   15.19
  -2  22  -4  104.00   29.65
  -2 -22   4   20.65   17.59
   2 -22  -4   72.94   59.11
   2 -22  -4   57.22   29.44
  -2 -22  -5   80.49   81.82
   2  22  -5   37.72    9.96
   2  22  -5  -15.21   20.38
  -2 -22  -5   31.33   12.35
  -2 -22  -5   28.26   31.92
  -2  22  -5   24.93    8.55
  -2 -22   5   10.99   20.54
   2 -22  -5   35.30    9.82
   2 -22  -5   13.00   58.02
  -2  22  -5   -1.97   17.89
  -2 -22  -6   31.76   33.81
  -2 -22  -6  -10.24   83.39
   2  22  -6   45.34   10.67
   2  22  -6   49.47   28.26
  -2 -22  -6   55.26   15.43
   2 -22   6   84.55   47.97
   2 -22  -6   13.24   28.85
   2 -22  -6   51.46   11.81
   2 -22  -6  -45.70   54.39
  -2  22  -6   38.09   11.37
  -2 -22   6    9.72   27.21
  -2  22  -6   34.59   28.25
  -2 -22  -7   12.66   36.89
   2 -22   7  -26.82   30.91
   2  22  -7    7.24    7.23
  -2 -22  -7   25.99    9.02
   2  22  -7   19.85   29.55
  -2 -22  -7  -13.25  116.91
  -2 -22  -7   17.11   10.87
   2 -22  -7  -66.27   59.43
  -2  22  -7   21.83   25.16
  -2  22  -7   25.85    8.42
   2 -22  -7   35.71   28.85
  -2 -22   7   52.37   49.16
  -3  22   0    0.28   15.91
  -3 -22   0   -4.77   36.50
   3  22   0   -4.99    2.93
   3 -22   0    4.89   14.22
  -3 -22   0    7.67    6.92
   3  22   0  -27.29   16.87
   3  22  -1    2.61    4.96
   3 -22   1   13.79   15.38
  -3 -22  -1  -14.92   34.03
  -3  22   1   -6.13   14.73
   3  22  -1  -16.93   17.19
  -3 -22  -1   11.72    6.91
   3 -22  -1   15.69   15.27
  -3  22  -1  -13.58   16.56
  -3 -22   1  -15.93   15.30
   3  22   1  -14.42   19.55
  -3 -22   1    4.60    5.65
   3  22   1    3.15    3.57
   3 -22   2   -5.41   13.78
  -3 -22  -2  -42.23   20.44
  -3 -22  -2   -0.88    3.01
   3  22  -2   -6.41   32.10
   3  22  -2   -7.84    2.44
   3 -22  -2    0.18   17.36
  -3  22  -2    0.62    3.75
   3  22   2   14.93   20.16
  -3  22  -2    8.77   17.86
  -3 -22   2   19.78   22.76
  -3 -22  -3   16.97   20.65
  -3 -22  -3   -4.12    3.36
   3 -22   3    2.01   12.03
   3  22  -3   15.88   20.92
   3  22  -3   -3.93    3.29
  -3  22  -3    9.92    4.74
  -3  22  -3   28.58   18.93
   3 -22  -3  -75.95   53.70
  -3 -22   3   -6.67   13.17
   3  22  -4    5.69    6.39
  -3 -22  -4    7.24    3.82
  -3 -22  -4  -33.85   27.89
   3  22  -4  -20.30   20.40
  -3 -22  -4   36.24   64.33
  -3  22  -4    0.51    3.41
  -3  22  -4   -0.56   18.78
  -3 -22   4  -10.55   13.47
   3 -22  -4  -21.27   51.54
  -3 -22  -5   12.76    8.06
   3  22  -5  -20.05   23.36
  -3 -22  -5  -13.95   69.01
   3 -22   5   -2.26   24.92
   3  22  -5    6.80    6.62
  -3 -22  -5  -26.83   32.11
  -3  22  -5    2.27   16.93
   3 -22  -5    6.79    3.76
   3 -22  -5  -11.84   22.31
  -3  22  -5    0.71    4.10
   3 -22  -5   12.30   55.73
  -3 -22   5    5.19   19.28
   3  22  -6   -3.93   22.55
  -3 -22  -6    3.64   88.17
  -3 -22  -6  -17.69   31.04
   3 -22   6   -7.43   28.63
   3  22  -6    0.52    4.80
  -3 -22  -6   -5.39    3.71
  -3 -22  -6    3.98    6.17
  -3 -22   6   38.45   30.03
  -3  22  -6   -3.44    4.48
   3 -22  -6    6.38   27.32
   3 -22  -6   48.43   61.65
  -3  22  -6   13.56   20.10
   3  22  -7  -21.97   23.16
   3 -22   7  -44.12   31.47
  -3 -22  -7   -2.73   73.93
   3  22  -7    2.49    5.67
  -3 -22  -7    7.79    7.02
  -3 -22  -7    0.69    4.76
  -3 -22  -7   56.63   44.81
   3 -22  -7    4.38   27.95
  -3  22  -7   26.90   21.35
  -3  22  -7    0.23    4.55
   3 -22  -7   56.14   54.94
  -3 -22   7  -20.90   34.62
  -4 -22   0   56.00   19.94
  -4  22   0   24.07   19.11
  -4 -22   0   98.69   19.91
   4  22   0   61.27   37.83
   4  22   0   89.19   18.65
   4  22  -1   59.67   13.42
  -4 -22  -1   69.83   43.57
  -4 -22  -1   55.82   13.99
  -4  22   1    7.80   16.08
   4  22  -1   51.49   27.00
   4  22   1   32.16   11.27
  -4  22  -1   22.13   18.43
  -4 -22   1   30.67   10.70
  -4 -22   1   35.92   44.57
   4  22   1   18.42   23.58
  -4 -22  -2   97.62   42.87
   4  22  -2   71.88   27.50
  -4 -22  -2   89.04   20.28
   4  22  -2   76.07   16.67
  -4 -22   2   68.16   26.20
  -4  22  -2   47.30   22.77
  -4 -22   2   92.23   19.68
   4  22   2   63.35   28.32
  -4 -22  -3   45.81   13.14
  -4 -22  -3   13.88   27.60
   4  22  -3   75.11   34.34
   4 -22   3   17.01   17.88
   4  22  -3   33.90   10.86
  -4 -22   3   40.63   13.75
   4 -22  -3  153.33   62.81
  -4 -22   3   11.29   25.23
  -4  22  -3   27.60   18.57
  -4  22  -3   18.68    7.15
   4 -22  -3    7.50   18.56
   4  22  -4   75.69   14.89
  -4 -22  -4  100.60   23.00
  -4 -22  -4   10.18   85.57
   4  22  -4   14.16   40.13
  -4 -22  -4   42.65   30.97
   4 -22   4   41.34   25.44
  -4  22  -4   42.78   21.77
   4 -22  -4   -5.10   51.52
   4 -22  -4   76.75   25.39
  -4 -22   4   53.46   28.95
  -4  22  -4   47.43   11.89
   4  22  -5   28.40    9.11
  -4 -22  -5  167.48  129.20
  -4 -22  -5   15.13   32.91
   4 -22   5   34.18   25.68
  -4 -22  -5   26.76   12.23
   4  22  -5   31.90   45.30
   4 -22  -5   39.75    9.81
   4 -22  -5    2.88   22.84
  -4 -22   5   68.28   33.98
  -4  22  -5   40.51   21.80
  -4  22  -5   17.92    7.35
   4 -22  -5  -24.75   53.06
  -4 -22  -6 -221.00  117.14
  -4 -22  -6   -1.55   45.05
  -4 -22  -6   19.31   13.22
   4 -22   6    1.04   32.08
   4  22  -6   33.17    9.83
  -4 -22  -6   31.64    9.51
   4  22  -6  -47.62   37.92
  -4  22  -6    3.31   21.86
  -4 -22   6   24.21   24.73
   4 -22  -6   91.05   60.25
   4 -22  -6   14.88   29.67
  -4  22  -6   29.53    8.61
  -5  22   0   24.01   17.40
  -5 -22   0    6.42    8.79
   5  22   0   -4.92    3.34
   5 -22   0    2.96   14.08
  -5 -22   0   -3.27   18.39
   5  22   0   13.22   21.83
   5 -22   1    3.52   15.08
   5  22  -1   -1.15    4.71
  -5 -22  -1  -16.83   24.50
  -5 -22  -1   24.86   10.29
   5  22  -1    1.77   21.36
   5  22   1   15.68    6.32
  -5 -22   1    6.44    4.73
   5  22   1   12.94   23.19
  -5  22  -1   -9.24   17.51
  -5 -22   1    8.67   18.00
   5 -22  -1   -6.44   17.55
  -5 -22  -2    8.71    7.22
   5  22  -2   -2.33    4.58
   5  22  -2   39.09   23.91
   5 -22   2    1.34   17.85
  -5 -22  -2  -13.38   19.69
  -5 -22   2  -12.94   19.32
  -5 -22   2    6.03    5.19
   5  22   2    5.95    6.18
   5 -22  -2   27.10   52.27
   5  22   2   23.63   24.63
   5 -22  -2  -19.03   17.53
  -5  22  -2    5.40   15.78
   5 -22   3  -10.60   18.20
   5  22  -3    1.77    4.87
  -5 -22  -3   -6.89   66.03
  -5 -22  -3    6.43    5.28
   5  22  -3    4.86   22.69
   5 -22  -3  -19.85   19.16
   5 -22  -3  -15.66   50.92
  -5 -22   3    4.64    9.05
  -5  22  -3    4.16   17.30
  -5 -22   3   21.27   23.80
   5  22  -4   -7.53   27.55
  -5 -22  -4   25.16   42.31
  -5 -22  -4    7.49    5.46
   5 -22   4    0.16   24.02
  -5 -22  -4  -34.82   80.70
   5  22  -4    1.47    5.17
  -5  22  -4  -31.94   17.02
  -5 -22   4   21.91   25.27
   5 -22  -4   31.05   22.45
   5 -22  -4  -29.18   45.75
  -5 -22   4   -0.43    5.40
   5  22  -5   -5.86    3.23
  -5 -22  -5   11.95    7.56
   5  22  -5  -26.39   29.74
  -5 -22  -5   37.90   95.65
   5 -22   5  -31.04   27.07
  -5 -22  -5   13.94    6.00
  -5 -22  -5  -16.80   53.13
  -5  22  -5   12.01   19.13
   5 -22  -5   15.86   26.18
  -5  22  -5    5.33    4.26
  -5 -22   5  -25.73   21.63
  -5 -22   5    2.66    7.53
   5 -22  -5   20.88   47.12
   5  22  -6    5.98   28.33
  -5 -22  -6 -103.38   98.22
   5  22  -6   -5.32    3.67
  -5 -22  -6  -34.19   40.69
  -5 -22  -6   13.83    7.75
  -5 -22  -6   -3.87    3.58
   5 -22  -6  -98.67   46.21
  -5  22  -6   -3.47    3.55
  -5 -22   6    4.18    8.60
  -5  22  -6   -6.61   26.03
  -5 -22   6  -33.88   30.16
  -6 -22   0   12.60   15.04
  -6  22   0    4.48   16.44
  -6 -22   0   26.77   12.71
   6  22   0   63.02   30.88
   6  22   0   28.36   10.18
   6 -22   0    7.18   18.22
   6  22  -1    2.90   24.86
   6  22  -1   29.40   10.18
  -6 -22  -1   15.27   25.65
  -6 -22  -1   30.00   12.44
   6 -22   1   48.35   19.29
  -6  22  -1   32.14   19.44
  -6 -22   1   -8.35   19.23
  -6 -22   1   33.03   12.89
   6 -22  -1   34.17   19.77
   6  22   1  -16.98   25.76
   6 -22   2   28.11   23.02
   6  22  -2   37.70   10.57
   6  22  -2   45.12   23.99
  -6 -22  -2    5.99   20.58
  -6 -22  -2   62.82   16.70
  -6  22  -2    1.19   18.15
   6 -22  -2   61.35   21.03
  -6 -22   2   18.54   11.84
  -6 -22   2   -9.58   18.89
   6 -22  -2   41.96   53.09
   6  22   2   11.20    7.77
  -6 -22  -3   35.13   90.91
  -6 -22  -3  -28.76   23.77
   6  22  -3    3.34   28.86
  -6 -22  -3   40.38   17.48
   6 -22   3   42.72   25.75
   6  22  -3   27.84    8.87
   6 -22  -3   22.56   23.90
  -6 -22   3   25.58   20.81
   6 -22  -3  -39.05   43.71
  -6 -22   3   19.05   11.85
  -6 -22  -4   14.06   89.56
  -6 -22  -4   32.90    9.65
  -6 -22  -4  -32.54   41.13
   6  22  -4    9.04    7.41
  -6 -22  -4   21.22   10.39
   6 -22   4   -5.26   29.08
   6  22  -4   59.49   29.73
   6 -22  -4   40.93   26.80
  -6 -22   4   -9.18   25.34
   6 -22  -4   28.53    9.95
   6 -22  -4   83.14   56.48
  -6  22  -4   12.47   21.43
  -6 -22   4   21.66   10.50
  -6 -22  -5   -8.05   91.42
  -6 -22  -5   23.15    6.83
  -6 -22  -5   13.28   48.21
  -6 -22  -5   61.97   17.95
   6  22  -5   -7.97   29.14
   6  22  -5    9.38    7.22
   6 -22  -5   26.07   49.87
  -6 -22   5  -15.48   28.12
  -6 -22   5   23.47   13.01
   7  22   0  -15.48   27.70
  -7 -22   0   -1.98    6.99
   7 -22   0   16.41   18.98
  -7 -22   0   12.32   16.69
   7  22   0   -2.96    4.14
  -7 -22  -1   -6.85   27.03
   7  22  -1  -34.36   28.93
   7 -22   1   -4.14   20.97
  -7 -22  -1   -9.99    6.19
   7  22  -1    5.54    7.45
   7  22   1   -5.49    3.93
  -7 -22   1   13.49   19.98
  -7 -22   1   18.44    9.23
   7 -22  -1    3.80   52.73
   7  22   1   15.88   34.00
   7 -22  -1   10.51   19.17
  -7  22  -1   14.04   18.23
   7  22  -2    4.30   29.78
   7  22  -2    3.19    6.27
  -7 -22  -2   -5.23   27.77
  -7 -22  -2   11.62   10.83
   7 -22   2   15.83   24.96
  -7  22  -2   -6.94   19.37
   7 -22  -2  -17.89   20.04
   7 -22  -2   -5.02    5.63
  -7 -22   2    8.13    5.77
   7  22   2   -1.11    5.92
  -7 -22   2  -11.60   22.40
   7 -22  -2    9.13   51.82
  -7 -22  -3   16.29    8.09
   7  22  -3    0.88    5.30
  -7 -22  -3 -194.54   90.60
   7  22  -3   -2.33   28.98
  -7 -22  -3   10.82    4.60
  -7 -22  -3   47.48   36.77
   7 -22  -3    5.19    7.67
  -7 -22   3    6.43    7.91
  -7 -22   3   -6.27   28.24
   7 -22  -3   84.53   51.77
   0 -23   0  -15.23   13.24
   0  23   0  -14.85   17.98
   0  23   0    4.61    4.24
   0 -23  -1    6.58   20.15
   0  23  -1   -2.69   13.78
   0  23   1   18.07   28.33
   0 -23   1   22.58   19.18
   0  23  -2   13.41   20.26
   0 -23  -2    1.30   22.76
   0 -23   2   15.56   17.65
   0  23   2   26.43   19.19
   0  23  -2   -0.96    4.15
   0  23  -3   -0.96   19.89
   0  23  -3    2.70    5.26
   0 -23   3   13.88   15.45
   0 -23  -3  -18.29   27.54
   0 -23  -3   -0.81    5.08
   0 -23  -4  -88.07  107.49
   0  23  -4   16.79   21.08
   0 -23   4  -24.79   21.41
   0 -23  -4   -4.36   22.75
   0 -23  -4   12.73    6.27
   0  23  -4    3.59    5.55
   0 -23  -5   73.93   78.23
   0 -23  -5   25.37   27.67
   0 -23  -5    7.75    6.43
   0  23  -5  -85.75   36.70
   0 -23   5   -4.38   27.30
   0  23  -6    4.59   30.69
   0 -23  -6  157.85   77.74
   0 -23  -6    5.97    6.40
   0  23  -6   -0.36    3.48
   0 -23   6  -11.26   25.01
   0 -23  -6    0.24   29.83
   0 -23  -7    8.88    5.93
   0 -23  -7   -6.81    4.77
   0  23  -7   -4.09    3.90
   0  23  -7  -22.08   26.31
   0 -23  -7   16.86   79.60
   1  23   0   47.15   23.99
   1 -23   0   27.77   17.14
   1  23   0   63.93   14.98
  -1 -23   0  158.21   37.80
  -1  23   0  115.08   29.21
   1  23  -1  111.25   28.60
  -1 -23  -1  197.54   44.86
  -1  23   1  140.12   30.70
   1  23  -1   84.50   20.21
   1 -23   1  175.05   35.87
   1  23   1   91.35   20.63
   1  23   1  134.43   39.94
  -1 -23   1  151.86   34.15
   1 -23  -1  101.26   29.48
  -1  23  -1  157.45   32.64
  -1  23  -1   89.07   19.24
   1  23  -2   81.21   30.70
   1 -23   2   57.20   19.55
  -1 -23  -2   64.44   15.29
  -1  23   2   36.29   19.56
  -1 -23  -2   46.77   24.72
   1  23  -2   39.10   11.79
  -1  23  -2  -11.72   19.69
   1 -23  -2   45.06   20.93
  -1  23  -2   42.25   11.83
  -1 -23   2   61.19   38.52
   1  23   2   56.96   25.25
  -1 -23  -3  113.87   20.16
   1 -23   3   50.03   24.43
  -1 -23  -3  129.72   39.18
   1  23  -3   71.60   15.29
   1  23  -3   28.40   22.54
  -1  23  -3   41.63   22.81
   1 -23  -3   63.92   25.49
   1 -23  -3   95.91   18.08
  -1 -23   3   39.27   23.53
  -1  23  -3   59.92   14.29
   1  23  -4   17.88   23.34
  -1 -23  -4   24.31   27.16
   1 -23   4   56.31   23.91
  -1 -23  -4   40.73   71.39
   1  23  -4   52.02   12.90
  -1 -23  -4   74.69   15.59
  -1  23  -4   38.29   11.49
   1 -23  -4   59.12   28.26
   1 -23  -4   69.01   14.45
   1 -23  -4   85.63   69.05
  -1 -23   4   44.77   26.26
  -1  23  -4   26.87   21.20
   1  23  -5   88.51   38.35
  -1 -23  -5   20.76   29.44
   1  23  -5   42.25   12.68
  -1 -23  -5  -94.24   71.91
   1 -23   5   74.14   29.56
  -1 -23  -5   75.52   16.94
  -1  23  -5   14.33   22.73
  -1 -23   5  125.62   40.14
   1 -23  -5   16.52   71.32
   1 -23  -5   64.16   32.57
   1 -23  -5   86.63   16.75
  -1  23  -5   52.10   13.35
  -1 -23  -6   -0.59   88.71
  -1 -23  -6  -79.07   38.99
   1  23  -6   25.94   27.25
  -1 -23  -6   39.10   12.80
   1  23  -6   47.15   11.06
  -1  23  -6    5.89   25.13
  -1 -23   6   76.21   30.92
  -1  23  -6   32.44   10.22
   1 -23  -6   30.80   10.67
   1 -23  -6  137.40   72.99
   1  23  -7   22.08    9.31
   1  23  -7   20.61   29.85
   1 -23   7  -16.21   33.88
  -1 -23  -7   24.10    9.59
  -1 -23  -7   32.74    9.73
  -1 -23  -7   10.51   41.61
  -1 -23  -7   36.00   83.52
  -1 -23   7   -7.69   37.42
   1 -23  -7   71.81   46.00
  -1  23  -7   37.33   34.26
   1 -23  -7   63.73   12.58
  -1  23  -7   31.05    9.60
   1 -23  -7 -167.22   99.48
   2  23   0   33.73   31.97
  -2  23   0    9.22   18.22
   2  23   0   -1.81    4.27
  -2 -23   0  -37.22   21.24
   2 -23   0  -14.94   15.70
   2 -23   1  -40.15   14.47
   2  23  -1   -2.55    3.67
  -2 -23  -1    3.62    4.71
  -2 -23  -1   -9.98   20.18
   2  23  -1    1.08   17.14
  -2  23   1  -10.51   18.16
  -2  23  -1   -0.48    2.24
  -2  23  -1   -0.02   16.49
   2  23   1   32.21   21.52
   2 -23  -1   21.31   16.19
   2  23   1   -3.41    4.00
  -2 -23   1  -16.33   22.37
  -2 -23  -2  -25.65   23.05
   2 -23   2   31.70   19.49
   2  23  -2   -8.18   19.82
  -2  23   2    3.52   18.86
   2  23  -2    8.70    5.80
   2  23   2  -32.72   19.67
  -2  23  -2   24.57   16.13
  -2  23  -2    4.51    3.83
  -2 -23   2  -10.83   16.92
   2 -23  -2   15.10   21.87
  -2 -23  -3   -2.46   20.61
   2 -23   3   -1.20   17.02
   2  23  -3   -5.27    3.07
  -2 -23  -3    4.64    6.40
   2  23  -3   12.02   20.76
   2 -23  -3   34.01   60.14
  -2 -23   3   58.41   41.95
  -2  23  -3   -6.35   19.66
   2 -23  -3    9.52   20.82
  -2  23  -3   -0.40    4.87
  -2 -23  -4  -93.15   75.99
  -2 -23  -4    8.09    5.50
   2  23  -4  -21.92   20.61
   2 -23   4    5.43   28.83
   2  23  -4    8.53    7.38
  -2 -23  -4   -2.40   26.82
  -2 -23   4  -11.76   13.88
  -2  23  -4  -19.14   23.13
   2 -23  -4   15.99    5.33
  -2  23  -4    4.23    5.06
   2 -23  -4  -43.60   63.28
  -2 -23  -5  -83.10   81.83
   2  23  -5   24.57   38.32
  -2 -23  -5  -17.28   31.81
   2  23  -5   -0.52    4.68
  -2 -23  -5    1.82    7.80
  -2  23  -5   32.86   23.07
   2 -23  -5  -37.61   24.87
   2 -23  -5  -83.51   61.59
  -2  23  -5   10.47    5.78
  -2 -23   5   10.81   17.28
   2 -23  -5    3.78    4.76
  -2 -23  -6    6.15    6.30
  -2 -23  -6  -40.08   76.56
   2  23  -6    9.88   24.99
   2 -23   6  -70.13   26.04
   2  23  -6   -2.38    4.87
  -2 -23  -6  -43.29   30.02
   2 -23  -6    9.26    4.80
  -2  23  -6   -8.86   26.30
  -2  23  -6    0.55    5.51
  -2 -23   6    6.30   41.79
   2 -23  -6  163.56   69.90
   2 -23  -6  -29.60   30.52
  -2 -23  -7  -25.83   36.83
   2  23  -7  -27.84   30.10
  -2 -23  -7   -0.88    6.20
  -2 -23  -7   96.14  100.13
   2  23  -7   -2.89    4.57
   2 -23   7   -1.18   35.92
  -2 -23  -7    1.25    8.03
   2 -23  -7   19.29   28.61
  -2  23  -7   38.30   29.48
  -2 -23   7  -94.28   66.47
  -2  23  -7   -5.11    4.00
   2 -23  -7  -14.81   69.23
  -3  23   0   33.36   20.77
   3  23   0   36.82   24.26
  -3 -23   0   30.74   18.67
   3 -23   0   22.16   20.40
   3  23   0   22.44    9.54
  -3 -23   0   36.00   13.24
  -3 -23  -1   73.69   24.67
  -3  23   1   52.54   23.45
  -3 -23  -1   79.92   19.44
   3 -23   1   65.55   31.95
   3  23  -1   51.97   14.17
   3  23  -1   58.06   23.74
  -3 -23   1   64.59   17.23
  -3  23  -1   61.98   24.24
   3  23   1  109.16   42.03
   3  23   1   38.89   13.56
  -3 -23   1   63.65   20.98
  -3 -23  -2   59.53   14.87
  -3 -23  -2   53.64   38.05
   3  23  -2   33.41   24.89
   3  23  -2   50.08   12.73
   3  23   2   69.10   28.25
  -3  23  -2   15.32   19.65
  -3  23  -2   37.40   10.59
  -3 -23   2   40.22   19.03
  -3 -23  -3  137.24   44.63
   3  23  -3   67.48   15.58
  -3 -23  -3   85.49   19.31
   3  23  -3   76.21   27.81
   3 -23  -3  129.70   69.33
  -3  23  -3   48.29   25.44
  -3  23  -3   72.88   14.71
  -3 -23   3   38.78   18.30
   3  23  -4   91.65   29.05
  -3 -23  -4    7.57   98.97
   3 -23   4   32.21   23.20
  -3 -23  -4   64.83   16.25
  -3 -23  -4   27.66   27.99
   3  23  -4   44.93   12.12
  -3  23  -4   29.96    9.70
  -3 -23   4   81.31   56.61
  -3  23  -4   26.22   25.24
   3 -23  -4  -45.13   55.94
   3 -23  -4    3.76   23.15
  -3 -23  -5   62.49   16.58
   3  23  -5   25.33   10.78
   3 -23   5   63.07   30.13
  -3 -23  -5   25.26   36.19
  -3 -23  -5   95.61   93.06
   3  23  -5   42.50   30.26
  -3  23  -5   33.11    9.94
   3 -23  -5   46.33   11.07
  -3  23  -5   51.24   22.75
   3 -23  -5   -6.84   25.68
  -3 -23   5   -4.19   22.71
   3 -23  -5   46.85   59.79
   3 -23   6   11.97   31.02
  -3 -23  -6  -24.64   33.34
  -3 -23  -6  -78.99   82.08
  -3 -23  -6   14.89    7.74
  -3 -23  -6   14.88   11.05
   3  23  -6   15.22    8.42
   3  23  -6   37.78   30.32
  -3  23  -6    5.56   22.16
  -3 -23   6   37.99   43.31
   3 -23  -6   25.14   30.06
   3 -23  -6  -11.19   55.74
  -3  23  -6    5.59    6.05
  -4 -23   0   16.04   20.95
   4  23   0   25.82   23.24
  -4  23   0    5.93   17.75
  -4 -23   0    3.92    5.53
   4  23   0   -5.71    4.84
   4 -23   0   12.13   16.56
  -4  23   1    7.94   16.88
   4  23  -1    7.45    5.24
   4  23  -1    4.61   21.76
   4 -23   1    3.45   18.60
  -4 -23  -1   15.59    7.27
  -4 -23  -1    0.90   19.43
   4 -23  -1    3.23   16.62
   4  23   1    8.03    5.22
  -4  23  -1    6.27   17.71
  -4 -23   1   30.96   27.15
  -4 -23   1   14.59    7.71
   4  23   1   -2.94   29.97
  -4 -23  -2    9.27   28.55
  -4 -23  -2    8.70    6.08
   4  23  -2   -9.19   22.38
   4  23  -2   -4.40    3.66
   4 -23   2   -6.17   16.39
   4 -23  -2   -9.87   18.84
  -4  23  -2  -13.24   15.13
   4  23   2   -4.84   20.76
  -4 -23   2   -4.20   27.77
   4  23   2    1.90    4.65
  -4 -23   2    7.53    4.82
   4  23  -3   31.62   24.68
   4 -23   3    9.46   18.07
   4  23  -3    1.96    5.50
  -4 -23  -3   20.00   26.62
  -4 -23  -3    4.16    7.52
  -4 -23   3  -46.63   25.14
  -4  23  -3    0.14    3.90
   4 -23  -3 -116.25   53.55
   4 -23  -3  -10.77   21.89
  -4 -23   3   11.94    7.36
  -4  23  -3   -1.04   16.56
   4  23  -4  -38.13   22.54
  -4 -23  -4   16.16    7.13
   4  23  -4    8.83    5.19
  -4 -23  -4  -50.44   86.09
   4 -23   4  -23.31   22.57
  -4 -23  -4  -25.85   38.63
  -4  23  -4  -10.53   19.31
  -4  23  -4    3.94    4.20
   4 -23  -4   67.60   57.16
   4 -23  -4  -19.39   21.47
  -4 -23   4  -26.52   24.85
  -4 -23  -5   11.40   11.32
   4  23  -5   -1.67    4.08
   4  23  -5   40.85   43.55
  -4 -23  -5   16.12   86.93
  -4 -23  -5  -11.24   40.73
   4 -23   5  -22.46   27.86
   4 -23  -5  -85.19   48.20
  -4 -23   5  -12.97   24.28
  -4  23  -5    1.50    4.12
   4 -23  -5   -2.04    3.93
  -4  23  -5   -4.93   20.78
   4 -23  -5  -39.38   23.98
  -4 -23  -6    1.26    6.25
   4  23  -6   -2.90    3.62
   4 -23   6   15.91   35.45
  -4 -23  -6   15.07   41.08
  -4 -23  -6   -6.62    3.65
  -4 -23  -6  -12.64   95.48
   4  23  -6   32.16   34.36
  -4 -23   6  -41.43   31.33
   4 -23  -6  -10.97   28.38
  -4  23  -6   -2.65   25.80
  -4  23  -6   -0.06    4.22
   4 -23  -6   -3.41   55.80
   5 -23   0   53.49   21.89
  -5 -23   0   61.06   17.48
  -5  23   0   31.91   19.75
   5  23   0   16.26    9.30
  -5 -23   0   36.22   16.77
   5  23   0    7.20   22.74
   5  23  -1   68.46   16.05
   5  23  -1   50.31   28.01
  -5 -23  -1   66.82   18.38
   5 -23   1   34.10   21.27
  -5 -23  -1   46.93   34.01
   5 -23  -1   58.20   23.31
   5  23   1   13.11   27.92
  -5 -23   1   55.15   23.23
  -5  23  -1   26.82   21.22
  -5 -23   1   56.73   16.32
   5  23   1   28.44   11.13
   5 -23   2   11.16   18.64
  -5 -23  -2    5.87   27.38
  -5 -23  -2   41.04   13.69
   5  23  -2   30.45   23.54
   5  23  -2    6.21    7.65
   5 -23  -2   43.02   21.35
   5  23   2   10.05    7.70
  -5 -23   2   51.84   27.04
  -5  23  -2   -4.33   18.72
   5 -23  -2  -84.89   51.47
   5  23   2   55.39   30.91
  -5 -23   2   22.53   12.02
   5  23  -3   23.27   28.22
   5  23  -3   32.27   10.46
   5 -23   3   40.70   24.35
  -5 -23  -3   58.77   17.89
  -5 -23  -3   37.92   36.16
  -5  23  -3    1.15   21.55
  -5 -23   3   41.53   27.87
   5 -23  -3   92.98   56.05
  -5 -23   3   25.25   11.84
   5 -23  -3   21.56   22.86
   5 -23   4   55.22   30.57
  -5 -23  -4   44.02   14.85
   5  23  -4   32.88   10.39
   5  23  -4   32.45   28.57
  -5 -23  -4  -42.42   97.11
  -5 -23  -4  -11.02   82.57
  -5  23  -4   15.25   22.04
  -5 -23   4  -15.84   22.81
  -5 -23   4   36.21   11.98
   5 -23  -4    5.83   24.17
   5 -23  -4  -68.19   55.78
   5 -23   5   70.62   36.82
  -5 -23  -5   41.05   35.15
   5  23  -5   46.43   11.52
   5  23  -5   36.39   30.62
  -5 -23  -5   15.67    8.50
  -5 -23  -5  -50.08   94.38
  -5 -23  -5   51.57   17.32
  -5 -23   5  -30.15   22.41
  -5  23  -5   27.30   23.42
   5 -23  -5  -14.46   60.10
  -5  23  -5   15.01    7.54
   5 -23  -5   21.97   41.69
  -5 -23   5   37.97   13.86
   6 -23   0    2.56   19.07
   6  23   0  -10.18   23.76
  -6  23   0   -3.59   18.29
  -6 -23   0   22.34   25.87
   6  23   0   -0.30    5.76
  -6 -23   0   19.16   10.10
   6  23  -1    1.04    6.12
   6  23  -1   -1.47   25.70
  -6 -23  -1   -8.93    5.23
  -6 -23  -1  -14.17   21.35
   6 -23   1   -3.39   17.41
   6 -23  -1   -7.41   19.29
  -6  23  -1   13.06   19.39
  -6 -23   1   -6.12    5.72
   6  23   1    0.26    5.43
   6  23   1   12.91   31.21
  -6 -23   1   -0.43   22.02
  -6 -23  -2   21.53   23.65
   6  23  -2    1.95    5.34
  -6 -23  -2   17.59    8.18
   6 -23   2    5.39   22.52
   6  23  -2   23.56   26.54
   6  23   2    0.17    5.83
  -6 -23   2   -6.20    5.37
  -6  23  -2   -5.06   18.53
  -6 -23   2    2.90   14.01
   6 -23  -2   60.29   56.24
   6 -23  -2  -16.01   18.77
   6  23  -3  -33.05   29.42
  -6 -23  -3   14.78    8.48
   6 -23   3  -49.67   24.74
  -6 -23  -3    8.89   36.07
   6  23  -3    2.20    5.42
  -6 -23  -3   47.73  101.66
  -6 -23   3   10.14    7.87
   6 -23  -3   38.03   53.20
   6 -23  -3   -2.12   23.53
  -6  23  -3  -22.15   21.16
  -6 -23   3   11.93   21.64
   6  23  -4    1.39   32.64
   6  23  -4    2.07    4.46
  -6 -23  -4  149.69   90.56
  -6 -23  -4   17.41    5.73
  -6 -23  -4    2.44    9.61
  -6 -23  -4   22.72   31.44
   6 -23  -4   -4.08   50.58
  -6 -23   4    5.19    5.92
   6 -23  -4    1.57    6.59
  -6 -23   4   41.09   32.37
  -7 -23   0   15.53   25.43
   7  23   0    3.76    7.05
  -7 -23   0   13.26   11.31
   7  23   0   49.26   35.80
  -7 -23  -1   20.51   13.53
   7  23  -1   13.01   30.74
  -7 -23  -1  -18.12   27.12
   7  23  -1   19.46    9.94
   7  23   1   59.22   32.78
   7 -23  -1   64.92   60.23
   7  23   1   13.53    9.53
  -7 -23   1   26.35   12.23
  -7 -23   1   -1.64   22.64
   7  23  -2   70.33   34.89
  -7 -23  -2  -39.77   30.54
  -7 -23  -2   44.28   16.78
   7  23  -2   13.32    9.05
  -7 -23   2   40.23   15.05
   7  23   2    6.67    8.11
   7 -23  -2    8.08    8.89
  -7 -23   2   14.04   20.45
   7 -23  -2   42.92   54.60
   0 -24   0  102.59   26.11
   0  24   0   87.02   18.34
   0  24   0   58.12   25.29
   0  24  -1   21.98   22.24
   0  24  -1   35.64   10.79
   0 -24   1  116.56   48.75
   0  24   1   17.58   24.42
   0 -24  -1   88.93   26.53
   0 -24   2   25.81   20.39
   0  24   2   26.54   24.22
   0 -24  -2   51.30   13.15
   0 -24  -2   42.04   25.71
   0  24  -2   75.68   26.76
   0 -24  -3   46.75   26.77
   0 -24   3    9.19   19.20
   0  24  -3   12.52    8.34
   0  24  -3  -25.24   26.08
   0 -24  -4   46.17   76.52
   0 -24  -4  133.83   48.39
   0  24  -4   21.09   23.77
   0  24  -4   73.31   16.34
   0 -24   4   43.57   27.64
   0 -24  -4   77.48   16.13
   0 -24  -5   64.23   46.71
   0 -24  -5   51.41   13.86
   0 -24   5   12.12   25.30
   0  24  -5   48.80   13.05
   0  24  -5   43.14   25.55
   0 -24  -5  147.75   89.02
   0 -24  -6   65.21   82.08
   0  24  -6   55.18   12.28
   0  24  -6   19.28   27.52
   0 -24  -6   37.15   13.27
   0 -24   6  -16.80   34.25
  -1 -24   0   -1.66   19.70
   1  24   0    1.19    4.61
   1 -24   0   -2.38   15.91
  -1  24   0  -15.74   19.40
   1  24   0    8.12   35.17
  -1 -24  -1    1.52   28.58
  -1  24   1  -30.92   18.23
   1  24  -1  -32.03   17.94
   1  24  -1   -1.69    3.65
   1 -24   1  -18.30   15.30
  -1  24  -1   14.80    6.46
  -1 -24   1   18.99   18.82
   1  24   1   24.48   34.56
  -1  24  -1  -12.82   19.31
   1 -24  -1    8.57   19.38
  -1  24   2   26.16   20.71
   1  24  -2   -1.67    3.82
   1 -24   2   -8.47   18.79
  -1 -24  -2    5.23    4.84
   1  24  -2   13.16   20.56
  -1 -24  -2  -19.70   23.49
  -1  24  -2    8.27   19.40
   1  24   2   17.33   20.87
  -1 -24   2   -0.82   25.59
  -1  24  -2    2.14    3.38
   1 -24  -2   22.74   24.56
  -1 -24  -3  -28.43   20.14
   1 -24   3   -1.78   19.24
   1  24  -3    5.25    5.61
  -1 -24  -3   14.81    7.44
   1  24  -3  -13.67   21.52
  -1  24  -3  -14.62   21.23
  -1 -24   3   -3.39   22.53
   1 -24  -3    6.04   21.49
  -1  24  -3   -1.57    4.05
   1 -24  -3   16.89    6.88
  -1 -24  -4   11.92    5.48
  -1 -24  -4   36.80   78.53
   1 -24   4   21.38   21.47
   1  24  -4   44.97   24.09
  -1 -24  -4  -28.89   37.08
   1  24  -4    2.55    6.22
  -1  24  -4   -2.37   20.57
  -1  24  -4   -4.38    4.29
   1 -24  -4    1.42   22.34
   1 -24  -4  -42.71   73.86
  -1 -24   4   12.42   25.62
   1 -24  -4   17.69    7.04
  -1 -24  -5   25.04    8.12
  -1 -24  -5  -44.84   92.50
  -1 -24  -5  -15.38   27.55
   1  24  -5    2.76    5.06
   1  24  -5  -46.12   29.43
  -1 -24   5  -38.22   23.78
  -1  24  -5   -1.01    5.35
   1 -24  -5   12.58    5.62
   1 -24  -5 -101.49  127.30
  -1  24  -5   32.24   24.18
  -1 -24  -6    1.96    7.25
  -1 -24  -6  106.72   85.24
  -1 -24  -6  -64.68   31.99
   1 -24   6   -9.20   28.67
   1  24  -6 -100.16   48.32
   1  24  -6   -0.39    5.78
  -1  24  -6    2.00   26.38
   1 -24  -6   87.56   78.01
   1 -24  -6  -13.57   30.72
   1 -24  -6   24.08    9.87
  -1 -24   6   -0.82   30.86
  -1  24  -6    3.64    6.13
   2  24   0   33.66   11.49
  -2 -24   0   57.65   16.61
  -2 -24   0   21.20   22.84
  -2  24   0   33.28   22.78
   2 -24   0   59.50   23.52
   2  24   0   40.83   29.13
  -2 -24  -1   13.43   22.50
   2 -24   1   33.64   21.64
  -2  24   1  -11.74   18.65
  -2 -24  -1   52.33   13.68
   2  24  -1   30.16    9.54
   2  24  -1    6.17   20.13
   2  24   1    8.08    7.62
  -2 -24   1    6.39   16.75
  -2  24  -1   61.61   23.33
   2  24   1   30.86   24.86
   2 -24  -1    8.52   18.51
   2 -24   2   41.64   21.27
  -2  24   2   56.89   27.06
  -2 -24  -2  127.17   34.92
  -2 -24  -2   90.47   18.52
   2  24  -2   66.19   28.17
   2  24  -2   57.26   14.00
  -2  24  -2   42.60   27.21
   2  24   2   75.87   29.08
   2 -24  -2   32.30   26.06
  -2  24  -2   51.27   12.40
  -2 -24   2   23.58   20.32
  -2 -24  -3   64.72   16.05
  -2 -24  -3  101.06   37.09
   2  24  -3   37.45   11.06
   2  24  -3   58.52   36.49
  -2 -24   3   62.27   25.24
  -2  24  -3   25.79    9.48
  -2  24  -3   28.78   20.90
   2 -24  -3 -117.73   67.52
   2  24  -4   42.50   30.51
  -2 -24  -4  115.34   95.54
   2  24  -4   66.27   15.64
  -2 -24  -4   55.30   64.17
  -2 -24  -4   69.06   17.30
   2 -24  -4  134.96   83.84
   2 -24  -4   39.70   27.70
   2 -24  -4   78.23   15.72
  -2  24  -4    8.30   24.16
  -2  24  -4   57.50   14.70
   2  24  -5   69.53   30.97
   2  24  -5   28.76    9.49
   2 -24   5   19.15   26.18
  -2 -24  -5  -87.02   90.57
  -2 -24  -5   67.70   35.01
  -2 -24  -5   19.92   12.41
   2 -24  -5 -119.11   65.82
  -2 -24   5    1.85   24.06
  -2  24  -5   19.16    8.59
   2 -24  -5   41.79   11.85
  -2  24  -5  -23.65   22.40
   2 -24  -5   47.96   30.01
  -2 -24  -6   24.19   37.72
   2  24  -6   36.18   11.36
  -2 -24  -6  -63.27  105.05
  -2 -24  -6   45.53   13.66
   2  24  -6   86.68   56.83
   2 -24   6   65.70   32.97
  -2  24  -6   58.46   31.96
   2 -24  -6   63.64   32.04
  -2 -24   6  -43.39   32.19
   2 -24  -6   59.07   13.68
  -2  24  -6   68.27   14.03
   2 -24  -6  -33.38   75.17
  -3  24   0   -1.63   18.44
  -3 -24   0    9.24    6.30
   3  24   0    4.22    5.50
   3  24   0   33.66   24.17
  -3 -24   0   -5.00   18.78
  -3  24   1    2.86   20.27
  -3 -24  -1    2.81    4.78
   3  24  -1    4.92    6.30
  -3 -24  -1   12.81   22.80
   3  24  -1   22.43   23.15
   3  24   1   -2.30    3.03
  -3 -24   1   16.05    8.49
  -3 -24   1  -20.29   22.06
  -3  24  -1    1.12   18.52
   3  24   1  -13.25   36.04
   3  24  -2   -3.56    4.06
   3 -24   2  -17.84   22.91
  -3 -24  -2    7.76   25.70
  -3 -24  -2    2.98    6.91
   3  24  -2   -8.23   21.54
  -3  24  -2  -33.81   18.62
   3 -24  -2  -27.44   21.19
  -3 -24   2   35.90   26.12
   3  24   2   -9.37   23.51
  -3  24  -2    4.94    4.67
   3  24  -3    2.24    4.93
  -3 -24  -3   15.01   33.79
   3  24  -3   13.60   22.97
   3 -24   3   -4.77   17.03
  -3 -24  -3   15.76    8.22
   3 -24  -3   19.80   19.14
  -3  24  -3    4.36    4.65
  -3  24  -3    0.93   20.82
   3 -24  -3  -22.04   67.05
  -3 -24   3   16.79   21.32
  -3 -24  -4   11.05    7.22
   3  24  -4    0.10    5.85
  -3 -24  -4  204.08  118.75
   3  24  -4    0.79   33.79
   3 -24   4   10.42   21.44
  -3 -24  -4  -39.20   29.24
   3 -24  -4  -14.98   66.00
  -3 -24   4   18.23   16.81
  -3  24  -4    1.03    5.41
   3 -24  -4   -1.52    5.16
   3 -24  -4    2.80   23.86
  -3  24  -4   -4.14   22.21
  -3 -24  -5   17.31  102.19
  -3 -24  -5   34.10   29.62
  -3 -24  -5   -1.37    4.73
   3  24  -5   34.43   44.03
   3 -24  -5    7.97    7.14
  -3  24  -5   20.43   23.58
   3 -24  -5   44.10   66.67
   3 -24  -5   29.40   26.81
  -3 -24   5  -16.02   24.97
  -3 -24  -6   21.66   43.86
  -3 -24  -6   -1.63    6.95
   3  24  -6   -5.58    4.15
   3 -24   6   -1.49   34.42
   3  24  -6  -31.31   32.18
  -3 -24  -6   -0.93    5.97
  -3 -24  -6  -30.70   84.23
  -3  24  -6  -15.92   23.86
  -3  24  -6    1.53    5.27
   3 -24  -6  -12.25   30.50
  -3 -24   6  -15.14   32.25
   3 -24  -6   73.61   73.06
  -4 -24   0   66.44   32.42
   4  24   0   37.60   26.14
  -4 -24   0   95.68   20.10
   4  24   0   48.64   14.37
   4 -24   0   58.38   23.38
  -4  24   0   41.13   25.96
   4 -24   1   11.92   19.98
  -4  24   1   41.22   20.47
  -4 -24  -1   -2.82   19.05
   4  24  -1   41.16   26.89
   4  24  -1   44.56   12.89
  -4 -24  -1   53.80   14.37
  -4 -24   1   32.67   21.56
  -4 -24   1   40.67   12.89
  -4  24  -1    9.56   20.38
   4 -24  -1   59.26   22.82
   4  24   1   27.36   26.98
   4  24   1   20.46    9.25
   4  24  -2   50.90   26.07
   4 -24   2   64.46   24.87
   4  24  -2   54.96   15.72
  -4 -24  -2   92.61   20.94
  -4 -24  -2   38.03   28.89
   4  24   2  108.01   34.26
  -4 -24   2   52.99   16.74
  -4 -24   2   30.62   18.63
   4 -24  -2   65.01   25.41
  -4  24  -2   38.48   25.26
   4  24  -3  -22.01   26.75
  -4 -24  -3   21.32   12.67
  -4 -24  -3   62.74   38.55
   4 -24   3  -13.40   19.59
   4  24  -3   23.00    8.31
  -4  24  -3   16.01   21.13
   4 -24  -3   33.10   57.77
   4 -24  -3   -2.63   25.19
  -4 -24   3   18.42   11.60
  -4 -24   3   21.69   21.88
  -4 -24  -4  -46.31   27.20
   4 -24   4   85.44   31.13
  -4 -24  -4  -12.40   99.96
   4  24  -4   63.72   33.84
   4  24  -4   46.29   12.54
  -4 -24  -4   75.63   18.82
  -4  24  -4   33.36    9.61
  -4  24  -4   31.67   29.74
  -4 -24   4   13.10   31.18
   4 -24  -4   17.90   27.30
   4 -24  -4   36.24   70.91
  -4 -24  -5   57.49   36.57
   4 -24   5   15.42   29.30
   4  24  -5    9.20    7.38
  -4 -24  -5   39.36   13.68
  -4 -24  -5   -2.34  134.48
   4  24  -5  -10.75   32.71
   4 -24  -5   19.43    7.94
   4 -24  -5  -11.24   63.69
  -4 -24   5  -40.94   70.85
  -4  24  -5    9.62    6.86
  -4  24  -5   30.33   24.96
   4 -24  -5   39.25   28.19
  -5  24   0   -9.04   18.90
  -5 -24   0   24.98   23.83
  -5 -24   0    7.32    8.16
   5 -24   0    6.74   20.44
   5  24   0   -2.20    5.62
   5  24   0   16.23   29.76
   5  24  -1    0.06    5.74
  -5 -24  -1  -15.77   28.21
  -5 -24  -1    9.89    8.18
   5 -24   1   28.56   22.16
   5  24  -1  -25.63   26.05
   5  24   1  -62.04   33.56
   5  24   1   -2.33    3.04
   5 -24  -1   -1.59   18.96
  -5 -24   1  -26.28   21.87
  -5 -24   1   11.24    8.59
  -5  24  -1    5.76   20.98
   5  24  -2    3.47    5.76
   5 -24   2  -14.38   18.18
  -5 -24  -2   11.95   10.36
   5  24  -2   -6.02   25.33
  -5 -24  -2  -15.01   28.41
   5 -24  -2   -9.84   20.32
  -5  24  -2   34.44   20.94
  -5 -24   2   -2.35   18.31
  -5 -24   2   -1.54    6.36
   5  24   2   -0.80    5.10
   5  24   2   -1.92   31.44
   5 -24  -2   54.12   59.59
  -5 -24  -3   15.25   37.26
   5 -24   3  -27.80   24.21
  -5 -24  -3    3.84    6.87
   5  24  -3    1.78    5.82
   5  24  -3  -14.09   29.66
   5 -24  -3   15.66   25.77
   5 -24  -3 -102.89   61.42
  -5  24  -3   18.22   20.24
  -5 -24   3    2.07    6.10
  -5 -24   3    1.35   25.07
  -5 -24  -4   -7.26    5.91
   5  24  -4   -6.38    4.03
   5 -24   4  -24.07   29.79
  -5 -24  -4 -184.86  102.06
   5  24  -4    9.23   32.19
  -5 -24  -4  -20.36   48.84
  -5 -24   4    4.16    8.13
  -5 -24   4  -15.70   24.31
   5 -24  -4  -19.24   55.80
   5 -24  -4   15.51   29.68
  -5  24  -4  -30.48   23.22
   6  24   0   25.05   34.20
   6 -24   0    6.06   22.70
  -6 -24   0   76.83   19.95
  -6 -24   0  -20.33   24.44
  -6  24   0   12.99   20.53
   6  24   0   24.08    9.92
   6  24  -1   27.88   10.58
  -6 -24  -1  -18.03   20.71
   6  24  -1  -16.81   30.73
  -6 -24  -1   36.34   13.81
   6 -24   1   11.32   20.86
   6  24   1  -29.52   30.47
  -6 -24   1  -34.43   23.33
   6  24   1   22.32   11.03
  -6  24  -1   19.45   22.80
   6 -24  -1   22.47   23.58
  -6 -24   1   17.01   12.63
   6  24  -2   41.64   33.46
  -6 -24  -2  -11.16   27.87
  -6 -24  -2   44.07   15.11
   6  24  -2   20.14    9.80
   6 -24  -2  -61.39   59.28
   6  24   2   29.14   11.85
  -6 -24   2   33.04   13.48
  -6 -24   2    2.44   26.93
  -6  24  -2   26.56   26.44
   6  24  -3   45.17   32.08
   6  24  -3    1.57    6.72
  -6 -24  -3    1.13    8.69
  -6 -24  -3   35.32  110.40
  -6 -24  -3  -19.19   43.16
   6 -24  -3    7.69   57.89
  -6 -24   3   51.55   15.04
  -6 -24   3    0.51   19.36
   0  25   0    9.34   19.50
   0 -25   0    0.82   18.96
   0  25   0   -1.64    4.31
   0  25  -1    8.62   22.93
   0  25   1  -13.10   21.95
   0 -25  -1    9.33   19.52
   0  25  -1    0.74    4.66
   0 -25   1  -19.71   19.40
   0 -25   2   23.44   22.66
   0 -25  -2   10.13   24.53
   0  25  -2   -7.34   21.05
   0 -25  -2    9.12    6.80
   0  25  -2    2.14    5.20
   0  25   2    5.13   20.64
   0  25  -3   56.41   42.21
   0 -25  -3   62.39   31.86
   0  25  -4    3.71    6.62
   0 -25   4   16.89   27.22
   0 -25  -4  -27.52   26.86
   0  25  -4   13.25   26.96
   0 -25  -4  -38.75  141.62
   0 -25  -4    8.36    5.76
   0  25  -5  -74.56   25.48
   0  25  -5   -1.01    5.37
   0 -25  -5   20.71    7.81
   0 -25  -5  -37.12   84.93
   0 -25   5   -5.08   22.26
   0  25  -6   16.80   29.58
   0 -25  -6   -4.81    6.14
   0 -25  -6    7.36   93.72
   0 -25  -6  -54.00   67.41
   0  25  -6   -0.43    4.82
  -1 -25   0   25.89   23.28
   1 -25   0   42.88   21.90
  -1  25   0   29.71   24.12
   1  25   0    9.99   22.10
   1  25   0   28.00   10.82
  -1  25   1   15.07   22.16
   1 -25   1   49.54   21.69
   1  25  -1   25.00   10.00
   1  25  -1   22.32   26.62
  -1 -25  -1   36.40   11.34
  -1 -25  -1   40.11   25.82
  -1  25  -1   34.67   10.54
  -1  25  -1   22.38   22.86
   1  25   1   62.15   29.05
  -1 -25   1  102.70   52.11
   1 -25  -1   24.89   18.59
  -1 -25  -2   28.85    9.63
   1  25  -2   16.55    8.48
  -1  25   2   33.10   27.20
  -1 -25  -2   18.23   35.37
   1  25  -2   12.58   23.90
   1 -25   2    6.44   20.91
  -1 -25   2   33.22   19.99
   1 -25  -2   56.23   24.19
  -1  25  -2   18.03    8.70
   1  25   2    0.11   32.72
  -1  25  -2   -2.52   21.45
   1  25  -3   19.07   23.52
   1  25  -3   29.23   10.51
   1 -25   3   23.90   18.22
  -1 -25  -3   48.16   43.83
  -1 -25  -3   47.89   13.86
   1 -25  -3   14.92   28.73
  -1  25  -3   27.35   10.13
   1 -25  -3   42.21   12.83
  -1 -25   3   31.58   24.30
  -1  25  -3   51.65   25.18
   1  25  -4  -18.42   26.76
  -1 -25  -4   36.09  106.19
  -1 -25  -4    6.94   29.55
   1  25  -4   10.96    7.56
  -1 -25  -4   25.41   11.76
  -1  25  -4   18.96    9.04
  -1 -25   4   -5.26   33.52
   1 -25  -4   54.96   81.14
  -1  25  -4   87.94   40.65
   1 -25  -4   24.67    9.68
   1  25  -5   51.38   12.03
  -1 -25  -5   40.49   44.00
  -1 -25  -5 -179.73   93.97
  -1 -25  -5   44.49   13.86
   1  25  -5   39.48   30.34
   1 -25   5    2.86   31.61
   1 -25  -5   51.99   14.03
  -1  25  -5   13.28   38.75
  -1 -25   5   28.24   27.46
   1 -25  -5   20.71   32.22
  -1  25  -5   29.84    9.75
   1 -25  -5   10.26   81.47
   1 -25   6  -11.29   34.19
   1  25  -6   33.34    9.96
  -1 -25  -6   91.56   92.29
   1  25  -6   -3.47   27.88
  -1 -25  -6   29.36   11.21
   1 -25  -6   16.21    8.46
  -1 -25   6   -8.31   47.47
  -1  25  -6   29.20    9.99
   1 -25  -6   22.81   90.94
  -1  25  -6   -1.33   26.91
   1 -25  -6   89.84   38.87
  -2 -25   0    7.40   19.54
   2  25   0    6.50    5.32
   2  25   0  -24.22   21.55
  -2  25   0    0.54   20.28
  -2 -25   0    4.15    5.60
  -2  25   1   13.59   22.15
   2  25  -1  -17.54   23.75
  -2 -25  -1   10.59   23.94
   2  25  -1    9.30    7.38
  -2 -25  -1   -0.95    5.26
   2  25   1    3.05   23.92
   2  25   1   -1.33    4.42
  -2 -25   1   -2.96   15.73
  -2  25  -1   11.98   21.34
   2  25  -2  -40.02   21.40
  -2  25   2  -41.03   18.40
  -2 -25  -2   11.70    5.46
  -2 -25  -2   35.45   38.31
   2  25  -2   11.51    6.99
  -2 -25   2   -5.35   21.90
  -2  25  -2    8.61   20.91
  -2  25  -2    6.02    4.65
   2  25   2  -10.85   24.96
   2  25  -3   -2.77    4.64
  -2 -25  -3    6.42    7.29
   2 -25   3  -12.24   22.89
   2  25  -3   34.91   43.16
  -2 -25  -3  -39.59   32.48
  -2 -25   3  -26.16   27.66
  -2  25  -3    4.21    5.06
   2 -25  -3    2.67   22.82
   2 -25  -3   50.29   75.91
  -2  25  -3   18.16   23.64
  -2 -25  -4   46.96  103.61
   2 -25   4  -14.29   25.50
  -2 -25  -4    2.46    6.14
   2  25  -4   -0.49    4.65
  -2 -25  -4   -1.78   41.87
   2  25  -4   14.87   26.48
   2 -25  -4  -24.88   24.13
  -2  25  -4    1.72    6.14
  -2  25  -4   27.56   47.90
   2 -25  -4   42.77   86.73
   2 -25  -4    5.00    6.67
  -2 -25   4   32.72   21.21
   2 -25   5  -78.17   26.34
  -2 -25  -5 -191.19   96.36
   2  25  -5   -3.74    5.26
  -2 -25  -5   -4.43   32.93
  -2 -25  -5   -4.09    5.80
   2  25  -5   10.80   47.94
  -2  25  -5    0.77    5.66
   2 -25  -5  -34.04   27.54
  -2  25  -5  -29.98   24.74
   2 -25  -5    4.85   84.92
   2 -25  -5   -0.87    5.31
  -2 -25   5   13.86   28.75
   2  25  -6   -4.37   30.09
  -2 -25  -6  -72.09   52.79
  -2  25  -6   -6.21   30.72
   2 -25  -6  -11.67   32.37
   3  25   0    9.60    6.64
  -3 -25   0   12.84    9.75
  -3 -25   0   94.68   38.04
   3  25   0    2.96   24.48
   3 -25   0   17.72   20.63
  -3  25   0  -10.05   21.25
  -3 -25  -1   63.26   27.80
  -3 -25  -1   54.95   14.00
   3  25  -1  -16.97   24.40
   3 -25   1   43.42   22.32
  -3  25   1  -23.15   22.15
   3  25  -1    6.65    7.18
  -3  25  -1  -14.53   19.33
   3  25   1   -2.61   33.15
   3 -25  -1   55.52   24.77
   3  25   1   14.04    7.42
  -3 -25   1   36.20   21.52
  -3 -25  -2   24.20   12.37
   3  25  -2   16.20    8.41
   3  25  -2    5.40   25.90
   3 -25   2   -2.97   21.03
  -3 -25  -2   69.27   35.34
   3 -25  -2   27.06   22.84
   3  25   2   20.92   29.75
  -3  25  -2    2.10   18.29
  -3 -25   2   47.79   24.44
  -3 -25  -3   85.01   20.11
   3 -25   3   20.71   19.40
  -3 -25  -3    4.45   35.25
   3  25  -3   45.40   12.61
   3  25  -3   45.45   32.54
  -3  25  -3   18.71   24.44
  -3  25  -3   36.31   10.12
  -3 -25   3  -14.13   28.18
   3 -25  -3  -53.56   77.55
   3 -25  -3   54.95   31.14
   3 -25   4   13.71   24.72
   3  25  -4    5.49    6.79
   3  25  -4  -15.67   30.56
  -3 -25  -4   -4.62   34.15
  -3 -25  -4   -0.99   90.23
  -3 -25  -4   14.54   10.28
  -3  25  -4  -16.68   23.39
  -3  25  -4    7.21    6.50
  -3 -25   4   -9.75   19.80
   3 -25  -4   14.76   26.81
   3 -25  -4   29.53   10.21
   3 -25  -4   66.33   83.20
   3  25  -5  -29.94   32.68
   3  25  -5    8.25    7.78
  -3 -25  -5   29.90  111.17
   3 -25   5   50.87   32.15
  -3 -25  -5    7.29    8.46
  -3 -25  -5   -3.48   50.04
  -3  25  -5   34.50   27.11
   3 -25  -5   11.02   29.19
   3 -25  -5   41.31   76.33
   3 -25  -5   29.57   10.10
  -3 -25   5    4.76   30.62
  -3  25  -5    6.53    6.86
   4 -25   0   -9.18   19.43
  -4 -25   0    9.28   25.04
  -4 -25   0    9.62    5.81
  -4  25   0   15.91   23.52
   4  25   0   11.82   26.55
   4  25   0    5.17    5.14
  -4  25   1   -9.67   20.10
   4  25  -1   -1.79    4.66
  -4 -25  -1   49.34   23.77
   4 -25   1    5.72   20.68
  -4 -25  -1   -6.12    5.54
   4  25  -1  -46.27   41.18
   4  25   1   -0.61    5.13
  -4 -25   1    0.09    7.24
  -4 -25   1    5.86   20.31
   4  25   1   24.25   26.72
   4 -25  -1   -7.98   20.14
  -4  25  -1  -20.78   20.11
   4 -25   2  -11.09   19.85
  -4 -25  -2    7.75    7.33
  -4 -25  -2  -29.27   27.87
   4  25  -2   -5.58    3.54
   4  25  -2  -32.39   23.09
  -4 -25   2    8.08    4.73
   4  25   2  -35.81   30.67
   4 -25  -2   12.58   21.65
  -4  25  -2    7.15   21.06
  -4 -25   2  -42.84   23.77
  -4 -25  -3  -20.66   35.43
  -4 -25  -3   25.62    9.92
   4  25  -3    0.59    6.18
   4  25  -3   -4.62   26.30
   4 -25   3   18.08   23.17
   4 -25  -3   21.98   25.17
   4 -25  -3  -18.58   66.13
  -4 -25   3   19.86   17.30
  -4 -25   3   -9.10    4.49
  -4  25  -3    9.05   22.95
   4  25  -4  -31.00   37.09
  -4 -25  -4   -2.46    7.23
   4 -25   4   10.63   29.60
  -4 -25  -4   23.13   49.16
   4  25  -4   -0.59    4.23
  -4 -25  -4   91.34  116.97
  -4  25  -4   55.13   29.60
  -4  25  -4   -0.92    5.09
  -4 -25   4    1.89   30.83
   4 -25  -4  -79.72   70.27
   4 -25  -4   -1.22   30.61
   5  25   0   15.28   31.92
  -5 -25   0  -32.63   28.33
  -5  25   0   -9.39   20.20
  -5 -25   0   38.16   13.95
   5  25   0   10.71    8.24
   5 -25   0   36.76   24.14
   5  25  -1   -4.54   29.16
  -5 -25  -1   40.81   14.77
  -5 -25  -1   13.67   32.47
   5  25  -1   49.16   13.83
   5 -25   1   34.61   23.85
   5  25   1   11.95    9.49
  -5 -25   1  -11.53   21.57
   5 -25  -1   50.16   22.12
  -5  25  -1   45.69   26.29
   5  25   1   21.33   34.95
  -5 -25   1   54.40   16.83
  -5 -25  -2   26.31   14.24
   5  25  -2  -10.29   27.60
  -5 -25  -2   37.75   40.00
   5  25  -2   25.08    9.97
   5 -25   2  -21.02   21.97
   5 -25  -2  -76.57   65.73
  -5 -25   2   25.28   11.59
   5 -25  -2   15.65   22.49
  -5  25  -2   15.37   23.52
  -5 -25   2  -23.13   27.18
   5  25  -3   29.89    9.71
  -5 -25  -3   17.56   13.15
   5  25  -3   57.06   34.44
   5 -25   3   10.78   35.24
  -5 -25  -3   20.91   34.06
  -5 -25  -3   59.73  102.05
   5 -25  -3  -35.99   77.68
   5 -25  -3   50.57   42.42
  -5  25  -3   17.95   27.65
  -5 -25   3   24.15   11.74
  -5 -25   3    8.54   21.83
  -6 -25   0   13.82    8.35
   6  25   0    0.83    5.93
  -6 -25   0  -16.18   16.99
   6  25   0  -23.86   32.32
   6  25  -1   -3.21    5.59
   6  25  -1  -22.60   30.18
  -6 -25  -1  -14.11   19.43
  -6 -25  -1   15.84    9.40
   6  25   1  -15.51   36.67
   6  25   1   -0.33    4.20
  -6 -25   1  -24.00   26.75
  -6 -25   1   -1.36    5.61
   6  25  -2  -27.50   34.49
   0 -26   0   18.35   22.37
   0  26   0   29.07   24.07
   0  26   0   22.97   10.06
   0  26   1   46.78   35.01
   0  26  -1   10.74   28.87
   0 -26  -1   50.32   26.91
   0 -26   1   33.57   24.35
   0  26   2   -8.76   24.99
   0 -26  -2   18.67    8.95
   0  26  -2   -4.28   23.31
   0  26  -2    7.18    6.91
   0 -26  -2   41.92   30.44
   0 -26   2   -9.29   20.19
   0  26  -3    2.78    5.76
   0 -26  -3    5.33   30.28
   0  26  -3  -11.94   27.57
   0 -26  -3   18.05    9.68
   0 -26   3   15.82   18.59
   0 -26  -4   48.14   14.97
   0 -26   4   25.74   37.10
   0 -26  -4   91.01  106.13
   0  26  -4   53.34   30.53
   0  26  -4   47.29   13.77
   0  26  -5    1.43   29.43
   0 -26  -5   31.68   35.60
   0 -26  -5   30.54   97.43
   0  26  -5   12.68    8.62
   0 -26  -5   31.43   11.86
   1  26   0   -0.51   23.57
  -1 -26   0   -4.86   19.70
   1 -26   0  -20.77   22.83
  -1  26   0    3.53   23.32
   1  26   0    0.06    4.28
   1 -26   1   17.39   33.50
   1  26  -1    1.52    4.52
  -1 -26  -1    4.46   22.21
   1  26  -1   14.74   27.68
  -1 -26  -1   15.29    7.96
  -1  26   1  -16.66   22.31
  -1  26  -1    7.91    6.21
  -1 -26   1    5.89   22.76
   1  26   1    7.63   32.66
  -1  26  -1  -20.22   21.72
  -1 -26  -2   30.54   29.28
  -1  26   2    8.63   23.51
   1  26  -2  -14.42   31.89
   1  26  -2   -2.48    4.34
  -1 -26  -2    5.99    7.66
  -1  26  -2    6.24   25.85
   1  26   2   11.35   24.88
  -1  26  -2   -2.89    3.79
  -1 -26   2   18.13   29.13
   1  26  -3  -26.23   26.13
   1  26  -3    5.55    6.23
  -1 -26  -3   10.62    5.38
  -1 -26  -3  -27.73   34.15
  -1 -26   3   -4.52   15.63
  -1  26  -3    7.96    6.21
   1 -26  -3   -0.95    3.95
  -1  26  -3   25.91   25.87
  -1 -26  -4   -1.46  102.08
  -1 -26  -4   -5.47   28.38
   1 -26   4   33.35   26.38
   1  26  -4    0.47    5.02
   1  26  -4  -28.66   27.74
  -1 -26  -4    3.90    7.51
   1 -26  -4  -22.64   30.15
  -1 -26   4   15.12   24.85
   1 -26  -4   -5.37    5.08
   1 -26  -4  -68.19   93.55
  -1  26  -4    3.14   27.79
  -1  26  -4    0.61    5.21
   1 -26   5   65.14   33.69
  -1 -26  -5   35.90   58.09
  -1 -26  -5    2.08  167.18
   1  26  -5   -8.97   30.71
  -1 -26  -5    8.24    8.97
   1  26  -5    5.23    6.85
   1 -26  -5  -44.58   93.58
  -1  26  -5    1.67    6.49
  -1  26  -5   -9.23   30.59
   1 -26  -5    7.37    6.01
  -1 -26   5   12.91   28.90
   1 -26  -5  -12.97   35.73
  -2 -26   0   16.16    9.58
  -2  26   0   -0.95   23.18
   2  26   0   42.31   27.58
   2 -26   0    8.56   20.20
   2  26   0   31.11   11.47
  -2 -26   0    2.50   19.40
  -2 -26  -1    2.82   23.36
  -2  26   1    0.77   25.20
  -2 -26  -1   13.45    9.38
   2  26  -1    8.97    5.39
   2 -26   1   -9.24   20.21
   2  26  -1   13.68   25.85
  -2  26  -1  -36.38   22.93
   2  26   1    4.06    6.09
   2 -26  -1    4.62   23.46
  -2 -26   1  -58.71   29.35
   2  26   1   10.30   34.51
   2  26  -2    7.85   44.44
   2 -26   2   34.97   22.50
   2  26  -2    4.35    6.44
  -2 -26  -2   -9.71   28.61
  -2 -26  -2   38.50   12.07
  -2  26  -2   16.19   21.98
  -2 -26   2  -24.95   20.62
   2 -26  -2   28.97   30.02
  -2  26  -2    3.18    5.75
   2  26   2    6.01   28.79
  -2 -26  -3   -2.20   32.34
  -2 -26  -3    4.33    8.38
   2  26  -3   30.64   10.55
   2  26  -3   48.98   37.51
   2 -26   3   23.80   21.36
   2 -26  -3   17.36   88.07
  -2 -26   3   63.75   27.85
   2 -26  -3   -1.57   31.61
  -2  26  -3   -7.45   25.54
  -2  26  -3   20.56    9.33
   2  26  -4   29.62   30.16
  -2 -26  -4 -250.69   95.84
   2  26  -4   18.06    9.12
  -2 -26  -4   46.47   12.99
   2 -26   4   46.32   31.53
  -2 -26  -4    0.73   33.11
  -2  26  -4   15.13    8.86
   2 -26  -4 -106.15   85.20
   2 -26  -4   36.65   11.90
   2 -26  -4   75.33   35.53
  -2 -26   4   16.38   26.81
  -2  26  -4    2.85   28.20
  -2 -26  -5   22.25  109.12
  -2 -26  -5   49.34   45.28
   2  26  -5   13.04    8.17
   2 -26   5   13.33   28.90
   2  26  -5   13.83   48.30
  -2 -26  -5    9.43    8.70
  -2  26  -5   -0.95   29.32
  -2  26  -5   12.51    8.07
  -2 -26   5   -2.38   30.83
   2 -26  -5   26.91   10.23
   2 -26  -5   -5.53   35.71
   2 -26  -5  179.18   96.05
   3 -26   0   18.78   21.31
   3  26   0    3.20    6.66
  -3 -26   0   18.29   30.32
  -3  26   0   -9.73   23.69
  -3 -26   0    6.50    6.53
   3  26   0    3.60   26.84
  -3 -26  -1  -12.29   26.56
   3 -26   1   -4.41   21.13
   3  26  -1   29.49   27.46
  -3  26   1   20.09   23.43
  -3 -26  -1    4.09    6.36
   3  26  -1   -4.28    4.81
   3  26   1    4.05    6.39
   3 -26  -1  -10.82   21.74
  -3 -26   1    5.08    6.05
  -3 -26   1   -1.55   21.49
  -3  26  -1   22.48   22.91
   3  26   1   10.48   28.64
  -3 -26  -2  -15.02   30.81
   3 -26   2    3.88   17.29
   3  26  -2   -7.30   22.49
   3  26  -2   -1.92    5.07
  -3 -26  -2   -7.40    5.02
  -3 -26   2  -14.10   24.10
   3  26   2   54.59   30.82
  -3  26  -2   15.94   26.91
   3 -26  -2  -32.45   24.24
   3  26  -3   32.81   39.19
   3 -26   3   -4.26   19.78
  -3 -26  -3    4.09    6.29
   3  26  -3    4.30    6.40
  -3 -26  -3   11.51   38.05
  -3 -26   3  -31.11   22.25
  -3  26  -3  -17.09   24.14
   3 -26  -3   -6.27   23.82
  -3  26  -3    6.41    5.52
   3 -26  -3  -89.06   82.94
   3  26  -4   19.56   31.76
  -3 -26  -4   -2.46    7.65
   3 -26   4    4.47   27.62
  -3 -26  -4  -18.12   34.25
  -3 -26  -4  -20.96  154.30
   3  26  -4   -1.77    4.75
   3 -26  -4    1.96    5.83
   3 -26  -4  -25.76   34.65
  -3  26  -4   -2.44    4.53
  -3 -26   4    2.46   26.32
  -3  26  -4  -37.44   27.35
   3 -26  -4  -51.15   83.92
  -4  26   0   -1.20   23.59
  -4 -26   0   25.17   11.33
   4  26   0  -20.75   45.25
  -4 -26   0   29.05   25.95
   4  26   0   10.26    8.67
   4 -26   0   42.05   24.97
   4  26  -1   70.09   51.40
  -4 -26  -1   20.25   11.44
   4 -26   1   -5.34   22.72
  -4  26   1  -21.47   23.37
   4  26  -1    8.96    8.55
  -4 -26  -1   -9.14   25.89
   4 -26  -1   54.91   24.39
   4  26   1    3.07    6.36
  -4 -26   1    3.10    7.86
   4  26   1  -14.30   30.54
  -4 -26   1  -34.53   31.91
  -4  26  -1   13.38   24.98
   4 -26   2   13.07   20.22
  -4 -26  -2    6.69    9.94
  -4 -26  -2    7.81   36.56
   4  26  -2   18.36   10.01
   4  26  -2   26.97   31.14
  -4 -26   2   35.00   26.76
   4  26   2  -11.13   45.74
  -4  26  -2   -9.51   24.90
  -4 -26   2   40.58   14.58
   4 -26  -2  -22.33   23.58
  -4 -26  -3   51.26   37.58
   4  26  -3   25.19   34.44
   4  26  -3    9.30    7.61
   4 -26   3    6.92   23.68
  -4 -26  -3   -4.07    6.67
  -4  26  -3    2.92   23.25
  -4 -26   3   39.59   28.03
   4 -26  -3  -22.18   29.37
  -4 -26   3    7.18    9.39
   4 -26  -3 -171.16   74.36
   5  26   0   28.47   32.57
   5 -26   0   33.07   28.18
  -5 -26   0    2.23   27.88
  -5 -26   0   11.02    8.78
   5  26   0   -4.85    3.99
  -5  26   0    2.01   22.90
   5  26  -1    3.10    6.19
  -5 -26  -1   10.67   11.41
   5  26  -1   53.70   46.90
  -5 -26  -1   -2.78   31.49
   5  26   1    7.66    5.30
  -5 -26   1   23.03   11.61
  -5 -26   1  -38.05   31.76
  -5  26  -1    9.47   31.19
   5  26   1  -34.39   43.44
   5  26  -2   -4.17    3.98
  -5 -26  -2    7.74    7.94
   5  26  -2  -10.08   34.62
  -5 -26  -2  -19.76   35.80
   5 -26  -2  -49.58   72.67
  -5 -26   2  -17.20   27.00
  -5 -26   2   -6.42    5.52
   0 -27   0    6.21   27.67
   0  27   0   11.27   25.99
   0  27  -1    6.80   25.68
   0  27  -1   -3.82    4.38
   0 -27  -1  -43.49   23.73
   0  27   1  -26.31   25.85
   0 -27   1  -14.70   21.73
   0 -27   2   -7.12   28.27
   0  27  -2   -7.47   36.33
   0  27  -2   -7.82    3.91
   0 -27  -2   -5.25    4.36
   0  27   2    7.13   28.01
   0  27  -3    7.48   26.58
   0 -27  -3   -5.42    4.82
   0  27  -3   -2.51    4.33
   0 -27  -4  -92.23  111.52
   0  27  -4    5.29    6.81
   0  27  -4  -32.65   30.03
   0 -27  -4  -46.25   32.52
   0 -27  -4    3.26    6.93
   1  27   0   -2.24   27.18
  -1 -27   0   -8.25   20.53
   1  27   0   -0.89    4.93
  -1  27   0   40.34   26.20
  -1 -27  -1   19.66   54.10
  -1  27   1   15.32   27.34
   1  27  -1   -0.51    5.56
   1  27  -1  116.08   46.68
  -1 -27  -1   40.54   11.71
   1  27   1  -18.41   27.53
  -1  27  -1   24.52   24.97
  -1 -27   1  -20.43   25.38
  -1  27  -1    4.09    6.34
   1  27  -2   18.18   26.77
  -1 -27  -2   -2.05   31.49
   1  27  -2    6.91    7.22
   1 -27   2  -20.95   26.73
  -1  27   2   68.54   30.87
  -1 -27  -2   13.29    9.19
   1  27   2  -25.03   40.49
  -1 -27   2  -18.32   20.99
   1 -27  -2  -37.37   27.54
  -1  27  -2   28.23   26.03
  -1  27  -2    0.90    5.80
  -1 -27  -3   46.52   31.75
   1 -27   3   26.37   28.16
   1  27  -3   25.13   32.15
  -1 -27  -3   35.06   12.26
  -1  27  -3    7.80    7.68
  -1 -27   3   48.80   32.16
  -1  27  -3   19.92   28.85
   1 -27  -3   15.77    9.51
   1 -27  -3   42.85   29.93
   1  27  -4    3.21    6.21
  -1 -27  -4   27.97   12.56
   1 -27   4   22.63   24.81
  -1 -27  -4   10.58  110.64
  -1 -27  -4   23.31   51.30
   1  27  -4    4.63   32.56
   1 -27  -4  -58.28   41.00
  -1 -27   4   13.22   24.13
  -1  27  -4    2.02    6.33
  -1  27  -4   45.89   31.83
   1 -27  -4   15.56    9.75
   1 -27  -4  103.05  113.92
   2  27   0    9.91    7.65
   2  27   0    7.46   47.91
  -2 -27   0    2.67   55.31
  -2  27   0   53.26   27.74
   2 -27   0   15.64   18.38
   2  27  -1   -5.88   46.42
   2 -27   1   62.45   26.66
   2  27  -1   -2.33    5.08
  -2 -27  -1  -35.04   58.35
  -2  27   1   24.82   26.73
  -2 -27  -1   -0.91    6.32
  -2 -27   1   34.64   26.45
   2  27   1   -5.31   27.80
   2 -27  -1    0.55   25.78
  -2  27  -1   41.32   28.32
   2  27  -2  -22.31   27.40
   2  27  -2    1.33    5.07
  -2 -27  -2    2.83    5.87
  -2 -27  -2    9.18   32.51
   2 -27   2  -12.47   24.66
   2 -27  -2    4.36   28.89
  -2 -27   2  -12.89   24.75
  -2  27  -2  -28.13   27.84
   2  27   2   -6.77   28.90
  -2  27  -2   -1.73    4.55
   2  27  -3   -1.28    5.09
   2  27  -3  -39.29   28.99
   2 -27   3   12.56   19.18
  -2 -27  -3    3.64    8.84
  -2 -27  -3    3.66   37.90
   2 -27  -3 -140.22   87.24
  -2 -27   3   -7.92   16.80
  -2  27  -3   39.85   29.46
   2 -27  -3  -33.49   24.63
  -2  27  -3   -5.35    4.42
   2  27  -4  -17.40   32.53
  -2 -27  -4   20.44   37.44
   2  27  -4   -2.60    4.19
   2 -27   4   -2.35   30.72
  -2 -27  -4   40.81  113.58
  -2 -27  -4   -6.02    6.31
  -2 -27   4  -22.04   33.55
   2 -27  -4   -1.59    5.12
  -2  27  -4    6.58    6.85
  -2  27  -4    3.18   29.48
   2 -27  -4   -6.88   40.84
   2 -27  -4   91.32  102.39
   3  27   0    2.87   31.32
   3  27   0   12.02    7.44
   3 -27   0   -0.71   22.18
  -3  27   0    5.84   26.93
  -3 -27   0    6.65    8.16
  -3 -27   0   -1.40   27.96
  -3  27   1  -31.78   25.74
  -3 -27  -1   41.77   13.42
  -3 -27  -1    0.75   35.46
   3  27  -1    8.39    6.44
   3  27  -1    8.29   28.57
   3 -27   1   17.36   24.01
  -3  27  -1    2.72   27.02
  -3 -27   1   17.94   32.87
  -3 -27   1   42.23   13.64
   3 -27  -1   47.51   26.91
   3  27   1   18.20    9.91
   3  27   1   -6.93   33.90
   3  27  -2   12.08    8.09
   3 -27   2   35.60   27.79
  -3 -27  -2    8.90   35.23
   3  27  -2   11.05   31.05
  -3 -27  -2   31.10   14.06
   3  27   2   -3.22   34.33
  -3 -27   2    4.14    8.79
   3 -27  -2   28.18   25.17
  -3  27  -2   -3.59   26.25
  -3 -27   2  -14.60   26.53
  -3 -27  -3   39.58   14.31
  -3 -27  -3   17.48   39.33
   3  27  -3   49.15   33.70
   3 -27   3   -4.69   24.62
  -3  27  -3   -6.76   27.65
   3 -27  -3   44.66   36.60
  -3 -27   3   43.97   22.80
   3 -27  -3   50.67   90.30
  -4 -27   0   -3.00    7.08
   4  27   0  -63.05   33.59
  -4 -27   0   23.15   21.00
  -4  27   0   -6.13   25.60
   4 -27   0    2.05   25.49
   4  27   0    1.59    5.70
   4 -27   1   56.56   30.26
  -4  27   1   14.01   25.49
  -4 -27  -1   29.19   31.21
  -4 -27  -1    5.83    7.47
   4  27  -1    2.35   32.34
   4  27  -1   -3.39    5.09
  -4 -27   1    1.78    8.07
   4  27   1  -18.10   36.87
   4  27   1    1.07    4.54
  -4 -27   1    6.12   25.75
  -4  27  -1  -31.88   23.10
   4 -27  -1   -5.23   22.89
  -4 -27  -2   18.03   11.55
   4  27  -2    0.24   34.07
   4  27  -2   11.25    6.88
  -4 -27  -2   -9.90   52.25
   4 -27   2   42.30   24.72
  -4  27  -2  -42.27   26.18
  -4 -27   2   -3.54   30.47
   4  27   2   58.58   57.25
   4 -27  -2   -2.69   32.02
  -4 -27   2    9.73    8.47
   0  28   0    6.86   30.12
   0  28   1   -8.54   30.66
   0  28  -1   18.20   30.49
   0  28  -1   10.40    8.73
   0  28  -2   17.18    9.86
   0  28   2  -41.74   38.07
   0  28  -2   -6.25   27.09
   0 -28  -2    5.92    8.41
   0 -28  -2   21.00   44.82
   0 -28   3   18.38   32.09
   0  28  -3  -45.17   37.19
   0  28  -3   -0.89    5.42
   0 -28  -3   37.11   38.53
   0 -28  -3   12.99    8.90
  -1 -28   0  -14.40   20.57
   1  28   0   -2.97    3.83
  -1  28   0   -5.78   28.79
   1  28   0    8.37   29.80
   1 -28   0   -3.00   28.82
   1 -28   1  -12.84   21.91
   1  28  -1   -0.37    4.91
  -1  28   1   21.65   30.43
  -1 -28  -1   -2.89    5.54
   1  28  -1  -16.62   29.10
  -1 -28  -1  -14.88   24.37
  -1  28  -1  -10.20   27.34
  -1 -28   1  -43.87   25.31
   1  28   1   -6.99   33.55
   1 -28  -1    8.13   28.94
   1  28  -2   -2.69    3.74
  -1 -28  -2    6.88   30.96
   1  28  -2    9.01   26.09
  -1  28   2    5.09   31.38
   1 -28   2  -15.29   26.72
  -1 -28  -2    2.40    8.69
  -1  28  -2   -2.83    4.37
   1  28   2   39.33   34.82
   1 -28  -2   65.93   31.77
  -1 -28   2  -47.14   28.03
  -1  28  -2   -5.63   28.62
  -1 -28  -3   -3.93    6.55
   1  28  -3  -16.14   43.76
   1 -28   3   -3.23   24.98
   1  28  -3    3.64    7.46
   1 -28  -3    2.14    6.84
  -1  28  -3    5.64    6.65
   1 -28  -3  -48.39   34.56
  -1  28  -3  -15.89   29.35
   1 -28  -3  100.55  112.19
  -1 -28   3    8.02   24.58
  -2 -28   0  -28.17   21.10
   2 -28   0    3.52   21.45
   2  28   0    4.59    7.20
   2  28   0   46.08   34.63
  -2  28   0  -25.99   30.84
  -2 -28   0   16.72   10.61
   2  28  -1   18.39    9.89
  -2 -28  -1   17.15   10.44
  -2  28   1  -37.09   27.00
   2 -28   1   16.24   27.88
  -2 -28  -1   -0.41   25.33
   2  28  -1   11.56   31.60
  -2 -28   1   10.99   58.70
  -2  28  -1   29.78   27.61
   2 -28  -1  -26.16   26.56
   2  28   1   -2.84   49.67
   2  28  -2   -9.17   38.02
  -2 -28  -2    7.35   37.10
   2  28  -2   20.43   10.19
  -2 -28  -2    8.77    9.15
   2 -28   2    6.50   26.27
   2  28   2   44.79   35.74
   2 -28  -2   41.75   31.40
  -2  28  -2    7.44    7.42
  -2 -28   2  -18.19   27.26
  -2  28  -2   30.18   28.10
  -2 -28  -3   43.99   40.51
   2  28  -3   47.38   35.56
   2  28  -3   21.85   10.06
   2 -28   3    8.61   31.12
  -2 -28  -3   17.84   11.00
   2 -28  -3   10.53    7.41
   2 -28  -3   16.15   39.21
  -2 -28   3   20.56   33.94
  -2  28  -3   17.13   31.43
  -2  28  -3    2.45    6.50
   2 -28  -3  -36.19  110.03
   3  28   0    7.08    6.41
  -3  28   0   23.09   29.32
   3  28   0  -40.60   43.29
  -3 -28   0  -28.40   27.30
   3 -28   0   16.83   26.67
  -3 -28   0   -7.55    5.21
   3  28  -1   11.51   34.26
   3  28  -1    7.27    7.22
   3 -28   1   -3.59   28.05
  -3  28   1   -5.77   28.62
  -3 -28  -1    5.72   10.56
  -3 -28  -1   22.06   43.63
  -3 -28   1   11.53   30.83
   3  28   1   34.43   45.36
  -3  28  -1    2.10   28.54
   3 -28  -1  -19.42   28.52
   3  28   1    4.47    5.56
  -3 -28   1   -1.57    7.17
   3  28  -2   -0.62    5.84
  -3 -28  -2    1.86    6.20
   3 -28   2   22.74   20.97
   3  28  -2    4.82   36.78
  -3 -28  -2   65.92   38.24
  -3  28  -2  -16.81   28.14
   3  28   2  -27.64   33.15
  -3 -28   2   -5.14    4.77
  -3 -28   2   56.89   33.22
   3 -28  -2  -11.67   30.57
   0 -29   0   45.60   36.96
   0  29   0   -3.66   32.66
   0 -29  -1   35.08   33.04
   0  29  -1  -14.30   31.65
   0  29  -1    4.73    6.99
   0 -29   1  -32.63   34.81
   0  29   1    4.47   34.53
   0  29   2  -23.13   63.07
   0  29  -2   43.72   34.85
   0 -29   2   19.18   33.61
   0 -29  -2   -1.99   63.39
   1 -29   0   45.47   38.64
  -1  29   0   34.27   34.07
   1  29   0   87.03   52.77
   1  29  -1   13.51    9.31
  -1  29   1   29.84   31.42
  -1 -29  -1   12.82   11.27
   1 -29   1   38.88   32.69
   1  29  -1    0.08   32.02
   1 -29  -1   13.58   30.51
  -1  29  -1    2.06   31.08
   1  29   1  -37.55   45.05
   2  29   0    0.48    5.86
  -2 -29   0    4.87   25.43
  -2  29   0    1.80   33.75
   2 -29   0   -3.79   27.00
   2  29   0   10.87   37.76
   0   0   0    0.00    0.00

_computing_structure_solution     'SHELXT 2018/2 (Sheldrick, 2018)'
;
_shelx_hkl_checksum     968

