 
data_mo_4f321_smcs_0m_a
 
_audit_creation_method            'SHELXL-2019/3'
_shelx_SHELXL_version_number      '2019/3'
_chemical_name_systematic         ?
_chemical_name_common             ?
_chemical_melting_point           ?
_chemical_formula_moiety          ?
_chemical_formula_sum
 'C28 Cs F4 N12 O24 Sm' 
_chemical_formula_weight          1247.66

loop_
 _atom_type_symbol
 _atom_type_description
 _atom_type_scat_dispersion_real
 _atom_type_scat_dispersion_imag
 _atom_type_scat_source
 'C'  'C'   0.0033   0.0016
 'International Tables Vol C Tables 4.2.6.8 and 6.1.1.4'
 'Cs'  'Cs'  -0.3680   2.1192
 'International Tables Vol C Tables 4.2.6.8 and 6.1.1.4'
 'F'  'F'   0.0171   0.0103
 'International Tables Vol C Tables 4.2.6.8 and 6.1.1.4'
 'N'  'N'   0.0061   0.0033
 'International Tables Vol C Tables 4.2.6.8 and 6.1.1.4'
 'O'  'O'   0.0106   0.0060
 'International Tables Vol C Tables 4.2.6.8 and 6.1.1.4'
 'Sm'  'Sm'  -0.1638   3.4418
 'International Tables Vol C Tables 4.2.6.8 and 6.1.1.4'
 
_space_group_crystal_system       monoclinic
_space_group_IT_number            5
_space_group_name_H-M_alt         'C 2'
_space_group_name_Hall            'C 2y'
 
_shelx_space_group_comment
;
The symmetry employed for this shelxl refinement is uniquely defined
by the following loop, which should always be used as a source of
symmetry information in preference to the above space-group names.
They are only intended as comments.
;
 
loop_
 _space_group_symop_operation_xyz
 'x, y, z'
 '-x, y, -z'
 'x+1/2, y+1/2, z'
 '-x+1/2, y+1/2, -z'
 
_cell_length_a                    23.786(5)
_cell_length_b                    10.089(2)
_cell_length_c                    10.041(2)
_cell_angle_alpha                 90
_cell_angle_beta                  91.644(5)
_cell_angle_gamma                 90
_cell_volume                      2408.5(9)
_cell_formula_units_Z             2
_cell_measurement_temperature     301(2)
_cell_measurement_reflns_used     ?
_cell_measurement_theta_min       ?
_cell_measurement_theta_max       ?
 
_exptl_crystal_description        ?
_exptl_crystal_colour             ?
_exptl_crystal_density_meas       ?
_exptl_crystal_density_method     ?
_exptl_crystal_density_diffrn     1.720          
_exptl_crystal_F_000              1194
_exptl_transmission_factor_min    ?
_exptl_transmission_factor_max    ?
_exptl_crystal_size_max           0.110
_exptl_crystal_size_mid           0.100
_exptl_crystal_size_min           0.100
_exptl_absorpt_coefficient_mu     2.070
_shelx_estimated_absorpt_T_min    0.804
_shelx_estimated_absorpt_T_max    0.820
_exptl_absorpt_correction_type    ?
_exptl_absorpt_correction_T_min   ?
_exptl_absorpt_correction_T_max   ?
_exptl_absorpt_process_details    ?
_exptl_absorpt_special_details    ?
_diffrn_ambient_temperature       301(2)
_diffrn_radiation_wavelength      0.71073
_diffrn_radiation_type            MoK\a
_diffrn_source                    ?
_diffrn_measurement_device_type   ?
_diffrn_measurement_method        ?
_diffrn_detector_area_resol_mean  ?
_diffrn_reflns_number             23753
_diffrn_reflns_av_unetI/netI      0.0632
_diffrn_reflns_av_R_equivalents   0.0803
_diffrn_reflns_limit_h_min        -32
_diffrn_reflns_limit_h_max        32
_diffrn_reflns_limit_k_min        -13
_diffrn_reflns_limit_k_max        13
_diffrn_reflns_limit_l_min        -13
_diffrn_reflns_limit_l_max        13
_diffrn_reflns_theta_min          2.029
_diffrn_reflns_theta_max          28.698
_diffrn_reflns_theta_full         25.242
_diffrn_measured_fraction_theta_max   0.997
_diffrn_measured_fraction_theta_full  0.997
_diffrn_reflns_Laue_measured_fraction_max    0.997
_diffrn_reflns_Laue_measured_fraction_full   0.997
_diffrn_reflns_point_group_measured_fraction_max   0.994
_diffrn_reflns_point_group_measured_fraction_full  0.996
_reflns_number_total              6201
_reflns_number_gt                 4859
_reflns_threshold_expression      'I > 2\s(I)'
_reflns_Friedel_coverage          0.890
_reflns_Friedel_fraction_max      0.991
_reflns_Friedel_fraction_full     0.994
 
_reflns_special_details
;
 Reflections were merged by SHELXL according to the crystal
 class for the calculation of statistics and refinement.
 
 _reflns_Friedel_fraction is defined as the number of unique
 Friedel pairs measured divided by the number that would be
 possible theoretically, ignoring centric projections and
 systematic absences. Completness statistics refer to single and
 composite reflections containing twin component 1 only.
;
 
_computing_data_collection        ?
_computing_cell_refinement        ?
_computing_data_reduction         ?
_computing_structure_solution     'SHELXT 2018/2 (Sheldrick, 2018)'
_computing_structure_refinement 'SHELXL-2019/2 (Sheldrick, 2019)'
_computing_molecular_graphics     ?
_computing_publication_material   ?
_refine_special_details
;
 Refined as a 2-component inversion twin.
;
_refine_ls_structure_factor_coef  Fsqd
_refine_ls_matrix_type            full
_refine_ls_weighting_scheme       calc
_refine_ls_weighting_details
'w=1/[\s^2^(Fo^2^)+(0.1209P)^2^+12.3577P] where P=(Fo^2^+2Fc^2^)/3'
_atom_sites_solution_primary      ?
_atom_sites_solution_secondary    ?
_atom_sites_solution_hydrogens    .
_refine_ls_hydrogen_treatment     undef
_refine_ls_extinction_method      none
_refine_ls_extinction_coef        .
_refine_ls_abs_structure_details
;
 Refined as an inversion twin.
;
_refine_ls_abs_structure_Flack    0.32(5)
_chemical_absolute_configuration  ?
_refine_ls_number_reflns          6201
_refine_ls_number_parameters      373
_refine_ls_number_restraints      478
_refine_ls_R_factor_all           0.0852
_refine_ls_R_factor_gt            0.0680
_refine_ls_wR_factor_ref          0.2194
_refine_ls_wR_factor_gt           0.2062
_refine_ls_goodness_of_fit_ref    1.119
_refine_ls_restrained_S_all       1.290
_refine_ls_shift/su_max           0.005
_refine_ls_shift/su_mean          0.000
 
loop_
 _atom_site_label
 _atom_site_type_symbol
 _atom_site_fract_x
 _atom_site_fract_y
 _atom_site_fract_z
 _atom_site_U_iso_or_equiv
 _atom_site_adp_type
 _atom_site_occupancy
 _atom_site_site_symmetry_order  
 _atom_site_calc_flag
 _atom_site_refinement_flags_posn
 _atom_site_refinement_flags_adp
 _atom_site_refinement_flags_occupancy
 _atom_site_disorder_assembly
 _atom_site_disorder_group
Sm1 Sm 0.500000 0.19022(2) 0.500000 0.0341(3) Uani 1 2 d S T P A .
Cs1 Cs 0.500000 -0.3124(3) 0.000000 0.0557(3) Uani 1 2 d S T P . .
O1 O 0.5185(8) -0.0907(18) 0.1974(18) 0.085(5) Uani 1 1 d D U . . .
O2 O 0.6655(7) -0.1344(17) 0.1670(16) 0.099(5) Uani 1 1 d D U . . .
O3 O 0.4661(10) 0.016(2) 0.320(2) 0.059(4) Uani 0.609(10) 1 d . U P A 1
O4 O 0.5071(11) 0.5048(19) 0.219(2) 0.096(5) Uani 1 1 d D U . . .
O5 O 0.4981(13) -0.050(3) 0.400(3) 0.052(4) Uani 0.391(10) 1 d D U P A 2
O6 O 0.5986(10) 0.135(2) 0.604(2) 0.061(4) Uani 0.609(10) 1 d . U P A 1
O7 O 0.5547(10) 0.032(2) 0.345(2) 0.063(4) Uani 0.609(10) 1 d D U P A 1
O8 O 0.4594(11) 0.352(3) 0.328(4) 0.062(5) Uani 0.391(10) 1 d D U P A 2
O9 O 0.6002(14) 0.133(3) 0.455(4) 0.059(4) Uani 0.391(10) 1 d . U P A 2
O10 O 0.5121(10) 0.2846(17) 0.2566(19) 0.055(3) Uani 0.609(10) 1 d D U P A 1
O11 O 0.5055(10) 0.4229(19) 0.4273(16) 0.060(4) Uani 0.609(10) 1 d D U P A 1
O12 O 0.6770(5) 0.1616(14) 0.5512(17) 0.091(4) Uani 1 1 d . U . . .
O13 O 0.5507(12) 0.354(3) 0.363(3) 0.060(4) Uani 0.391(10) 1 d D U P A 2
O14 O 0.5056(14) 0.112(3) 0.262(3) 0.053(4) Uani 0.391(10) 1 d D U P A 2
O15 O 0.6281(9) -0.331(2) 0.128(2) 0.121(5) Uani 1 1 d D U . . .
O16 O 0.6031(9) 0.284(2) 0.456(2) 0.055(3) Uani 0.609(10) 1 d . U P A 1
O17 O 0.6213(9) -0.183(2) -0.017(2) 0.120(6) Uani 1 1 d D U . . .
O18 O 0.5966(14) 0.277(3) 0.602(3) 0.054(4) Uani 0.391(10) 1 d . U P A 2
N1 N 0.6251(5) 0.1739(16) 0.5364(14) 0.057(3) Uani 1 1 d . U . . .
N3 N 0.6425(10) -0.220(2) 0.092(2) 0.112(5) Uani 1 1 d D U . . .
N4 N 0.5081(9) -0.014(2) 0.2785(19) 0.058(3) Uani 1 1 d . U . . .
N6 N 0.5078(9) 0.4048(16) 0.3009(16) 0.067(4) Uani 1 1 d D U . . .
F1 F 0.7248(9) -0.415(2) 0.7017(19) 0.153(7) Uani 1 1 d . U . . .
N5 N 0.6531(7) -0.337(2) 0.425(2) 0.104(4) Uani 1 1 d D U . . .
C2 C 0.5920(8) -0.366(3) 0.454(3) 0.116(5) Uani 1 1 d D U . . .
C3 C 0.6842(11) -0.426(3) 0.493(3) 0.102(6) Uani 1 1 d D U . . .
C5 C 0.6859(12) -0.194(4) 0.608(3) 0.124(6) Uani 1 1 d D U . . .
C7 C 0.5909(11) -0.355(3) 0.602(3) 0.116(6) Uani 1 1 d D U . . .
C9 C 0.6751(12) -0.337(3) 0.693(3) 0.124(6) Uani 1 1 d D U . . .
C11 C 0.6555(11) -0.197(2) 0.471(2) 0.112(6) Uani 1 1 d D U . . .
C13 C 0.6400(10) -0.416(3) 0.598(2) 0.115(5) Uani 1 1 d D U . . .
F21 F 0.6779(12) 0.060(3) 0.003(2) 0.216(9) Uani 1 1 d D U . . .
N2 N 0.6488(8) 0.293(2) 0.0227(19) 0.129(5) Uani 1 1 d D U . . .
C1 C 0.5936(10) 0.146(3) 0.176(2) 0.145(7) Uani 1 1 d D U . . .
C4 C 0.5894(9) 0.154(2) -0.035(2) 0.119(5) Uani 1 1 d D U . . .
C6 C 0.6828(10) 0.260(3) -0.096(3) 0.131(6) Uani 1 1 d D U . . .
C8 C 0.6496(11) 0.139(2) -0.058(3) 0.137(5) Uani 1 1 d D U . . .
C10 C 0.6244(12) 0.074(3) 0.065(2) 0.134(5) Uani 1 1 d D U . . .
C12 C 0.6499(9) 0.215(3) 0.153(2) 0.121(5) Uani 1 1 d D U . . .
C14 C 0.5872(8) 0.299(2) -0.014(2) 0.120(6) Uani 1 1 d D U . . .
 
loop_
 _atom_site_aniso_label
 _atom_site_aniso_U_11
 _atom_site_aniso_U_22
 _atom_site_aniso_U_33
 _atom_site_aniso_U_23
 _atom_site_aniso_U_13
 _atom_site_aniso_U_12
Sm1 0.0471(4) 0.0287(4) 0.0267(4) 0.000 0.0011(2) 0.000
Cs1 0.0921(8) 0.0358(6) 0.0385(5) 0.000 -0.0094(5) 0.000
O1 0.117(11) 0.072(9) 0.066(8) -0.036(7) 0.003(8) -0.007(8)
O2 0.100(10) 0.096(10) 0.100(10) -0.005(9) -0.004(9) -0.007(8)
O3 0.080(8) 0.053(8) 0.044(7) -0.012(7) -0.009(7) -0.012(7)
O4 0.140(12) 0.066(9) 0.084(10) 0.035(8) 0.026(9) 0.014(9)
O5 0.075(9) 0.049(8) 0.031(8) -0.016(7) -0.010(7) -0.005(8)
O6 0.061(7) 0.057(7) 0.065(7) 0.006(7) 0.003(6) 0.007(7)
O7 0.082(7) 0.054(7) 0.054(7) -0.012(6) -0.001(6) 0.010(6)
O8 0.095(10) 0.049(8) 0.043(9) 0.017(8) 0.004(8) 0.003(8)
O9 0.065(7) 0.054(7) 0.060(7) 0.003(8) 0.002(7) 0.016(7)
O10 0.085(8) 0.043(6) 0.038(6) 0.008(6) 0.005(6) -0.001(6)
O11 0.093(9) 0.037(7) 0.049(8) 0.008(6) 0.005(7) -0.002(7)
O12 0.056(5) 0.068(10) 0.147(11) 0.005(7) -0.004(7) 0.002(5)
O13 0.080(8) 0.047(7) 0.052(8) 0.014(7) 0.007(7) -0.003(7)
O14 0.074(8) 0.047(7) 0.037(7) -0.013(7) -0.007(7) -0.001(8)
O15 0.126(9) 0.116(11) 0.119(9) 0.028(9) -0.015(8) 0.003(8)
O16 0.063(6) 0.048(7) 0.054(6) 0.007(6) 0.007(6) 0.007(6)
O17 0.125(9) 0.134(10) 0.102(9) 0.006(8) 0.002(8) -0.021(8)
O18 0.059(8) 0.045(8) 0.057(8) 0.001(8) -0.001(7) 0.019(8)
N1 0.057(5) 0.049(7) 0.064(6) 0.007(6) 0.005(4) 0.008(6)
N3 0.111(8) 0.118(9) 0.106(9) 0.018(8) 0.002(8) -0.007(8)
N4 0.079(7) 0.051(6) 0.043(6) -0.018(5) -0.006(5) -0.004(6)
N6 0.099(8) 0.051(6) 0.051(7) 0.020(6) 0.007(6) 0.002(6)
F1 0.176(15) 0.152(15) 0.128(11) 0.042(11) -0.056(11) 0.008(12)
N5 0.083(7) 0.127(10) 0.102(9) 0.022(8) -0.007(7) -0.046(7)
C2 0.094(9) 0.126(11) 0.129(10) 0.009(10) -0.002(9) -0.036(9)
C3 0.090(10) 0.102(12) 0.115(11) 0.017(10) -0.001(10) -0.018(9)
C5 0.106(11) 0.142(13) 0.122(12) 0.029(11) -0.023(10) -0.043(10)
C7 0.100(10) 0.121(12) 0.127(11) 0.007(11) 0.008(10) -0.035(9)
C9 0.115(10) 0.144(13) 0.112(11) 0.034(10) -0.031(9) -0.027(10)
C11 0.094(10) 0.126(13) 0.114(11) 0.039(10) -0.024(10) -0.047(9)
C13 0.101(8) 0.124(10) 0.118(9) 0.022(8) -0.011(8) -0.035(8)
F21 0.230(17) 0.260(18) 0.154(15) -0.026(15) -0.061(14) -0.028(16)
N2 0.118(8) 0.138(8) 0.130(8) 0.003(7) -0.002(7) 0.005(7)
C1 0.139(10) 0.151(10) 0.146(10) 0.001(9) -0.001(9) -0.002(9)
C4 0.110(8) 0.131(9) 0.115(8) 0.001(7) -0.017(7) -0.010(7)
C6 0.121(10) 0.142(10) 0.132(10) -0.003(9) 0.009(8) -0.001(8)
C8 0.134(8) 0.138(8) 0.139(8) -0.003(7) -0.006(7) 0.004(7)
C10 0.127(8) 0.141(8) 0.133(8) -0.007(7) -0.002(7) -0.003(7)
C12 0.113(8) 0.132(9) 0.119(8) 0.003(8) -0.004(7) -0.004(8)
C14 0.108(9) 0.136(10) 0.115(9) 0.000(8) -0.013(8) 0.001(8)
 
_geom_special_details
;
 All esds (except the esd in the dihedral angle between two l.s. planes)
 are estimated using the full covariance matrix.  The cell esds are taken
 into account individually in the estimation of esds in distances, angles
 and torsion angles; correlations between esds in cell parameters are only
 used when they are defined by crystal symmetry.  An approximate (isotropic)
 treatment of cell esds is used for estimating esds involving l.s. planes.
;
 
loop_
 _geom_bond_atom_site_label_1
 _geom_bond_atom_site_label_2
 _geom_bond_distance
 _geom_bond_site_symmetry_2
 _geom_bond_publ_flag
Sm1 O11 2.463(19) . ?
Sm1 O11 2.463(19) 2_656 ?
Sm1 O13 2.49(3) 2_656 ?
Sm1 O13 2.49(3) . ?
Sm1 O9 2.51(3) . ?
Sm1 O9 2.51(3) 2_656 ?
Sm1 O14 2.53(3) . ?
Sm1 O14 2.53(3) 2_656 ?
Sm1 O8 2.55(3) . ?
Sm1 O8 2.55(3) 2_656 ?
Sm1 O6 2.60(2) . ?
Sm1 O6 2.60(2) 2_656 ?
Sm1 O7 2.61(2) 2_656 ?
Sm1 O7 2.61(2) . ?
Sm1 O5 2.62(3) . ?
Sm1 O5 2.62(3) 2_656 ?
Sm1 O3 2.64(2) 2_656 ?
Sm1 O3 2.64(2) . ?
Sm1 O18 2.64(3) . ?
Sm1 O18 2.64(3) 2_656 ?
Sm1 O10 2.65(2) . ?
Sm1 O10 2.65(2) 2_656 ?
Sm1 O16 2.68(2) . ?
Sm1 O16 2.68(2) 2_656 ?
Cs1 O4 2.872(18) 2_645 ?
Cs1 O4 2.872(18) 1_545 ?
Cs1 O1 3.013(16) . ?
Cs1 O1 3.013(16) 2_655 ?
Cs1 O17 3.18(2) 2_655 ?
Cs1 O17 3.18(2) . ?
Cs1 O15 3.276(19) 2_655 ?
Cs1 O15 3.276(19) . ?
Cs1 N3 3.61(2) 2_655 ?
Cs1 N3 3.61(2) . ?
O1 N4 1.155(19) . ?
O2 N3 1.258(13) . ?
O3 N4 1.13(3) . ?
O4 N6 1.301(12) . ?
O5 N4 1.30(3) . ?
O6 N1 1.02(2) . ?
O7 N4 1.36(3) . ?
O8 N6 1.305(14) . ?
O8 O18 1.70(4) 2_656 ?
O9 N1 1.08(3) . ?
O10 N6 1.297(13) . ?
O11 N6 1.284(13) . ?
O11 O11 1.49(3) 2_656 ?
O12 N1 1.244(17) . ?
O13 N6 1.284(14) . ?
O14 N4 1.28(3) . ?
O15 N3 1.233(13) . ?
O16 N1 1.46(2) . ?
O17 N3 1.247(13) . ?
O18 N1 1.42(3) . ?
F1 C9 1.42(3) . ?
N5 C3 1.33(3) . ?
N5 C11 1.491(14) . ?
N5 C2 1.519(13) . ?
C2 C7 1.490(14) . ?
C3 C13 1.513(14) . ?
C5 C11 1.528(14) . ?
C5 C9 1.70(4) . ?
C7 C13 1.32(4) . ?
C9 C13 1.486(14) . ?
F21 C10 1.44(2) . ?
N2 C6 1.493(13) . ?
N2 C14 1.501(13) . ?
N2 C12 1.520(12) . ?
C1 C10 1.531(14) . ?
C1 C12 1.533(13) . ?
C4 C8 1.466(14) . ?
C4 C14 1.481(14) . ?
C4 C10 1.515(13) . ?
C6 C8 1.510(14) . ?
 
loop_
 _geom_angle_atom_site_label_1
 _geom_angle_atom_site_label_2
 _geom_angle_atom_site_label_3
 _geom_angle
 _geom_angle_site_symmetry_1
 _geom_angle_site_symmetry_3
 _geom_angle_publ_flag
O11 Sm1 O11 35.3(8) . 2_656 ?
O11 Sm1 O13 64.0(9) . 2_656 ?
O11 Sm1 O13 34.0(9) 2_656 2_656 ?
O13 Sm1 O13 96.7(15) 2_656 . ?
O13 Sm1 O9 137.1(10) 2_656 . ?
O13 Sm1 O9 64.7(10) . . ?
O11 Sm1 O9 109.4(10) . 2_656 ?
O11 Sm1 O9 96.1(10) 2_656 2_656 ?
O13 Sm1 O14 140.6(10) 2_656 . ?
O13 Sm1 O14 69.2(11) . . ?
O9 Sm1 O14 71.3(11) . . ?
O9 Sm1 O14 100.2(11) 2_656 . ?
O11 Sm1 O14 125.8(8) . 2_656 ?
O11 Sm1 O14 90.8(8) 2_656 2_656 ?
O13 Sm1 O8 76.7(11) 2_656 . ?
O13 Sm1 O8 51.6(6) . . ?
O9 Sm1 O8 111.6(10) . . ?
O9 Sm1 O8 85.8(10) 2_656 . ?
O14 Sm1 O8 65.6(11) . . ?
O14 Sm1 O8 144.5(11) 2_656 . ?
O11 Sm1 O8 64.5(9) . 2_656 ?
O11 Sm1 O8 37.9(8) 2_656 2_656 ?
O11 Sm1 O6 105.5(7) . . ?
O11 Sm1 O6 98.0(7) 2_656 . ?
O11 Sm1 O6 98.0(7) . 2_656 ?
O11 Sm1 O6 105.5(7) 2_656 2_656 ?
O6 Sm1 O6 155.5(10) . 2_656 ?
O11 Sm1 O7 142.6(7) . 2_656 ?
O11 Sm1 O7 112.1(7) 2_656 2_656 ?
O6 Sm1 O7 95.2(7) . 2_656 ?
O6 Sm1 O7 69.5(7) 2_656 2_656 ?
O11 Sm1 O7 112.1(7) . . ?
O11 Sm1 O7 142.6(7) 2_656 . ?
O6 Sm1 O7 69.5(7) . . ?
O6 Sm1 O7 95.2(7) 2_656 . ?
O7 Sm1 O7 104.2(10) 2_656 . ?
O13 Sm1 O5 145.4(10) 2_656 . ?
O13 Sm1 O5 113.9(10) . . ?
O9 Sm1 O5 74.0(11) . . ?
O9 Sm1 O5 81.5(11) 2_656 . ?
O14 Sm1 O5 49.3(9) . . ?
O14 Sm1 O5 94.1(10) 2_656 . ?
O8 Sm1 O5 109.2(10) . . ?
O8 Sm1 O5 148.6(9) 2_656 . ?
O11 Sm1 O5 173.5(8) . 2_656 ?
O11 Sm1 O5 140.1(6) 2_656 2_656 ?
O6 Sm1 O5 69.2(8) . 2_656 ?
O6 Sm1 O5 87.9(8) 2_656 2_656 ?
O7 Sm1 O5 37.6(9) 2_656 2_656 ?
O7 Sm1 O5 70.0(9) . 2_656 ?
O11 Sm1 O3 145.4(7) . 2_656 ?
O11 Sm1 O3 116.8(6) 2_656 2_656 ?
O6 Sm1 O3 47.7(8) . 2_656 ?
O6 Sm1 O3 112.9(7) 2_656 2_656 ?
O7 Sm1 O3 47.8(7) 2_656 2_656 ?
O7 Sm1 O3 81.4(7) . 2_656 ?
O11 Sm1 O3 116.8(6) . . ?
O11 Sm1 O3 145.4(7) 2_656 . ?
O6 Sm1 O3 112.9(7) . . ?
O6 Sm1 O3 47.7(8) 2_656 . ?
O7 Sm1 O3 81.4(7) 2_656 . ?
O7 Sm1 O3 47.8(7) . . ?
O3 Sm1 O3 96.1(10) 2_656 . ?
O13 Sm1 O18 89.6(8) 2_656 . ?
O13 Sm1 O18 64.1(9) . . ?
O9 Sm1 O18 47.6(11) . . ?
O9 Sm1 O18 145.8(11) 2_656 . ?
O14 Sm1 O18 113.8(11) . . ?
O14 Sm1 O18 78.8(10) 2_656 . ?
O8 Sm1 O18 111.1(9) . . ?
O8 Sm1 O18 38.2(8) 2_656 . ?
O5 Sm1 O18 117.5(9) . . ?
O5 Sm1 O18 98.8(9) 2_656 . ?
O11 Sm1 O18 67.7(8) . 2_656 ?
O11 Sm1 O18 75.2(8) 2_656 2_656 ?
O6 Sm1 O18 172.8(9) . 2_656 ?
O6 Sm1 O18 31.7(7) 2_656 2_656 ?
O7 Sm1 O18 89.6(8) 2_656 2_656 ?
O7 Sm1 O18 114.6(8) . 2_656 ?
O3 Sm1 O18 137.3(8) 2_656 2_656 ?
O3 Sm1 O18 73.1(8) . 2_656 ?
O11 Sm1 O10 51.3(5) . . ?
O11 Sm1 O10 86.5(6) 2_656 . ?
O6 Sm1 O10 109.1(8) . . ?
O6 Sm1 O10 80.0(7) 2_656 . ?
O7 Sm1 O10 147.3(6) 2_656 . ?
O7 Sm1 O10 66.4(6) . . ?
O3 Sm1 O10 146.7(7) 2_656 . ?
O3 Sm1 O10 69.2(6) . . ?
O11 Sm1 O10 86.5(6) . 2_656 ?
O11 Sm1 O10 51.3(5) 2_656 2_656 ?
O6 Sm1 O10 80.0(7) . 2_656 ?
O6 Sm1 O10 109.1(8) 2_656 2_656 ?
O7 Sm1 O10 66.4(6) 2_656 2_656 ?
O7 Sm1 O10 147.3(6) . 2_656 ?
O3 Sm1 O10 69.2(6) 2_656 2_656 ?
O3 Sm1 O10 146.7(7) . 2_656 ?
O10 Sm1 O10 137.8(7) . 2_656 ?
O11 Sm1 O16 63.8(7) . . ?
O11 Sm1 O16 76.7(7) 2_656 . ?
O6 Sm1 O16 47.2(7) . . ?
O6 Sm1 O16 146.0(7) 2_656 . ?
O7 Sm1 O16 142.3(6) 2_656 . ?
O7 Sm1 O16 69.1(7) . . ?
O3 Sm1 O16 94.9(7) 2_656 . ?
O3 Sm1 O16 112.8(7) . . ?
O10 Sm1 O16 66.2(7) . . ?
O10 Sm1 O16 98.6(7) 2_656 . ?
O11 Sm1 O16 76.7(7) . 2_656 ?
O11 Sm1 O16 63.8(7) 2_656 2_656 ?
O6 Sm1 O16 146.0(7) . 2_656 ?
O6 Sm1 O16 47.2(7) 2_656 2_656 ?
O7 Sm1 O16 69.1(7) 2_656 2_656 ?
O7 Sm1 O16 142.3(6) . 2_656 ?
O3 Sm1 O16 112.8(7) 2_656 2_656 ?
O3 Sm1 O16 94.9(7) . 2_656 ?
O10 Sm1 O16 98.6(7) . 2_656 ?
O10 Sm1 O16 66.2(7) 2_656 2_656 ?
O16 Sm1 O16 138.7(9) . 2_656 ?
O4 Cs1 O4 100.1(10) 2_645 1_545 ?
O4 Cs1 O1 170.1(6) 2_645 . ?
O4 Cs1 O1 88.2(6) 1_545 . ?
O4 Cs1 O1 88.2(6) 2_645 2_655 ?
O4 Cs1 O1 170.1(6) 1_545 2_655 ?
O1 Cs1 O1 84.1(8) . 2_655 ?
O4 Cs1 O17 105.7(6) 2_645 2_655 ?
O4 Cs1 O17 105.0(6) 1_545 2_655 ?
O1 Cs1 O17 77.0(5) . 2_655 ?
O1 Cs1 O17 67.2(6) 2_655 2_655 ?
O4 Cs1 O17 105.0(6) 2_645 . ?
O4 Cs1 O17 105.7(6) 1_545 . ?
O1 Cs1 O17 67.2(6) . . ?
O1 Cs1 O17 77.0(5) 2_655 . ?
O17 Cs1 O17 131.3(9) 2_655 . ?
O4 Cs1 O15 68.2(6) 2_645 2_655 ?
O4 Cs1 O15 107.2(7) 1_545 2_655 ?
O1 Cs1 O15 114.7(5) . 2_655 ?
O1 Cs1 O15 70.7(5) 2_655 2_655 ?
O17 Cs1 O15 37.7(4) 2_655 2_655 ?
O17 Cs1 O15 147.0(6) . 2_655 ?
O4 Cs1 O15 107.2(7) 2_645 . ?
O4 Cs1 O15 68.2(6) 1_545 . ?
O1 Cs1 O15 70.7(5) . . ?
O1 Cs1 O15 114.7(5) 2_655 . ?
O17 Cs1 O15 147.0(6) 2_655 . ?
O17 Cs1 O15 37.7(4) . . ?
O15 Cs1 O15 173.3(7) 2_655 . ?
O4 Cs1 N3 86.3(6) 2_645 2_655 ?
O4 Cs1 N3 113.4(6) 1_545 2_655 ?
O1 Cs1 N3 95.4(5) . 2_655 ?
O1 Cs1 N3 61.4(5) 2_655 2_655 ?
O17 Cs1 N3 19.9(3) 2_655 2_655 ?
O17 Cs1 N3 136.6(6) . 2_655 ?
O15 Cs1 N3 19.9(3) 2_655 2_655 ?
O15 Cs1 N3 166.1(6) . 2_655 ?
O4 Cs1 N3 113.4(6) 2_645 . ?
O4 Cs1 N3 86.3(6) 1_545 . ?
O1 Cs1 N3 61.4(6) . . ?
O1 Cs1 N3 95.4(5) 2_655 . ?
O17 Cs1 N3 136.6(6) 2_655 . ?
O17 Cs1 N3 19.9(3) . . ?
O15 Cs1 N3 166.1(6) 2_655 . ?
O15 Cs1 N3 19.9(3) . . ?
N3 Cs1 N3 150.0(7) 2_655 . ?
N4 O1 Cs1 158.6(16) . . ?
N4 O3 Sm1 99.8(16) . . ?
N6 O4 Cs1 168.9(17) . 1_565 ?
N4 O5 Sm1 95.8(18) . . ?
N1 O6 Sm1 102.8(17) . . ?
N4 O7 Sm1 95.0(14) . . ?
N6 O8 O18 167(3) . 2_656 ?
N6 O8 Sm1 94.6(18) . . ?
O18 O8 Sm1 73.8(16) 2_656 . ?
N1 O9 Sm1 106(2) . . ?
N6 O10 Sm1 90.4(12) . . ?
N6 O11 O11 169(2) . 2_656 ?
N6 O11 Sm1 99.3(12) . . ?
O11 O11 Sm1 72.4(4) 2_656 . ?
N6 O13 Sm1 98.2(18) . . ?
N4 O14 Sm1 100.9(19) . . ?
N3 O15 Cs1 95.5(15) . . ?
N1 O16 Sm1 87.5(11) . . ?
N3 O17 Cs1 100.0(15) . . ?
N1 O18 O8 156(3) . 2_656 ?
N1 O18 Sm1 89.9(16) . . ?
O8 O18 Sm1 68.0(16) 2_656 . ?
O6 N1 O12 121(2) . . ?
O9 N1 O12 125(2) . . ?
O9 N1 O18 112(2) . . ?
O12 N1 O18 120.3(19) . . ?
O6 N1 O16 116.0(18) . . ?
O12 N1 O16 118.7(16) . . ?
O6 N1 Sm1 57.8(14) . . ?
O9 N1 Sm1 53.5(19) . . ?
O12 N1 Sm1 177.4(12) . . ?
O18 N1 Sm1 61.9(15) . . ?
O16 N1 Sm1 63.3(10) . . ?
O15 N3 O17 115(2) . . ?
O15 N3 O2 125(2) . . ?
O17 N3 O2 118(2) . . ?
O15 N3 Cs1 64.6(13) . . ?
O17 N3 Cs1 60.1(13) . . ?
O2 N3 Cs1 136.0(18) . . ?
O3 N4 O1 130(2) . . ?
O1 N4 O14 125(2) . . ?
O1 N4 O5 122(2) . . ?
O14 N4 O5 113(2) . . ?
O3 N4 O7 117(2) . . ?
O1 N4 O7 113(2) . . ?
O11 N6 O10 118.6(18) . . ?
O13 N6 O4 128(2) . . ?
O11 N6 O4 120.9(18) . . ?
O10 N6 O4 120.5(18) . . ?
O13 N6 O8 116(2) . . ?
O4 N6 O8 117(2) . . ?
O13 N6 Sm1 56.3(16) . . ?
O11 N6 Sm1 55.3(10) . . ?
O10 N6 Sm1 63.6(11) . . ?
O4 N6 Sm1 174.3(15) . . ?
O8 N6 Sm1 59.3(16) . . ?
C3 N5 C11 117(2) . . ?
C3 N5 C2 107.0(19) . . ?
C11 N5 C2 98.6(19) . . ?
C7 C2 N5 102.8(18) . . ?
N5 C3 C13 86(2) . . ?
C11 C5 C9 111(2) . . ?
C13 C7 C2 84(2) . . ?
F1 C9 C13 101(2) . . ?
F1 C9 C5 112(2) . . ?
C13 C9 C5 103(2) . . ?
N5 C11 C5 108(2) . . ?
C7 C13 C9 102(2) . . ?
C7 C13 C3 133(3) . . ?
C9 C13 C3 95(2) . . ?
C6 N2 C14 111.2(12) . . ?
C6 N2 C12 125.0(19) . . ?
C14 N2 C12 102.8(8) . . ?
C10 C1 C12 70.6(17) . . ?
C8 C4 C14 99.2(11) . . ?
C8 C4 C10 62.0(7) . . ?
C14 C4 C10 116.7(16) . . ?
N2 C6 C8 71.4(7) . . ?
C4 C8 C6 118.6(16) . . ?
F21 C10 C4 103.9(17) . . ?
F21 C10 C1 144(3) . . ?
C4 C10 C1 88.0(13) . . ?
N2 C12 C1 111.9(9) . . ?
C4 C14 N2 87.6(9) . . ?
 
loop_
 _geom_torsion_atom_site_label_1
 _geom_torsion_atom_site_label_2
 _geom_torsion_atom_site_label_3
 _geom_torsion_atom_site_label_4
 _geom_torsion
 _geom_torsion_site_symmetry_1
 _geom_torsion_site_symmetry_2
 _geom_torsion_site_symmetry_3
 _geom_torsion_site_symmetry_4
 _geom_torsion_publ_flag
Sm1 O6 N1 O12 -177.3(14) . . . . ?
Sm1 O6 N1 O16 26(2) . . . . ?
Sm1 O9 N1 O12 177.4(14) . . . . ?
Sm1 O9 N1 O18 -22(3) . . . . ?
O8 O18 N1 O9 44(7) 2_656 . . . ?
Sm1 O18 N1 O9 20(3) . . . . ?
O8 O18 N1 O12 -154(6) 2_656 . . . ?
Sm1 O18 N1 O12 -178.3(14) . . . . ?
O8 O18 N1 Sm1 25(6) 2_656 . . . ?
Sm1 O16 N1 O6 -25(2) . . . . ?
Sm1 O16 N1 O12 178.3(14) . . . . ?
Cs1 O15 N3 O17 -34(3) . . . . ?
Cs1 O15 N3 O2 130(3) . . . . ?
Cs1 O17 N3 O15 36(3) . . . . ?
Cs1 O17 N3 O2 -129(2) . . . . ?
Sm1 O3 N4 O1 178(2) . . . . ?
Sm1 O3 N4 O7 9(2) . . . . ?
Cs1 O1 N4 O3 -9(6) . . . . ?
Cs1 O1 N4 O14 -110(4) . . . . ?
Cs1 O1 N4 O5 70(5) . . . . ?
Cs1 O1 N4 O7 161(3) . . . . ?
Sm1 O14 N4 O1 -169.3(19) . . . . ?
Sm1 O14 N4 O5 10(3) . . . . ?
Sm1 O5 N4 O1 169.8(19) . . . . ?
Sm1 O5 N4 O14 -10(3) . . . . ?
Sm1 O7 N4 O3 -9(2) . . . . ?
Sm1 O7 N4 O1 179.8(16) . . . . ?
Sm1 O13 N6 O4 175.0(18) . . . . ?
Sm1 O13 N6 O8 -2(3) . . . . ?
O11 O11 N6 O10 -47(14) 2_656 . . . ?
Sm1 O11 N6 O10 -6(3) . . . . ?
O11 O11 N6 O4 134(12) 2_656 . . . ?
Sm1 O11 N6 O4 175.0(18) . . . . ?
O11 O11 N6 Sm1 -41(12) 2_656 . . . ?
Sm1 O10 N6 O11 6(2) . . . . ?
Sm1 O10 N6 O4 -175.5(19) . . . . ?
Cs1 O4 N6 O13 112(8) 1_565 . . . ?
Cs1 O4 N6 O11 -163(8) 1_565 . . . ?
Cs1 O4 N6 O10 19(10) 1_565 . . . ?
Cs1 O4 N6 O8 -71(9) 1_565 . . . ?
O18 O8 N6 O13 32(14) 2_656 . . . ?
Sm1 O8 N6 O13 2(3) . . . . ?
O18 O8 N6 O4 -146(12) 2_656 . . . ?
Sm1 O8 N6 O4 -175.3(15) . . . . ?
O18 O8 N6 Sm1 29(12) 2_656 . . . ?
C3 N5 C2 C7 58(3) . . . . ?
C11 N5 C2 C7 -64(3) . . . . ?
C11 N5 C3 C13 75(2) . . . . ?
C2 N5 C3 C13 -34(2) . . . . ?
N5 C2 C7 C13 -40(2) . . . . ?
C11 C5 C9 F1 109(3) . . . . ?
C11 C5 C9 C13 2(3) . . . . ?
C3 N5 C11 C5 -11(3) . . . . ?
C2 N5 C11 C5 103(2) . . . . ?
C9 C5 C11 N5 -31(3) . . . . ?
C2 C7 C13 C9 134(2) . . . . ?
C2 C7 C13 C3 25(4) . . . . ?
F1 C9 C13 C7 172(2) . . . . ?
C5 C9 C13 C7 -73(3) . . . . ?
F1 C9 C13 C3 -52(3) . . . . ?
C5 C9 C13 C3 63(3) . . . . ?
N5 C3 C13 C7 6(4) . . . . ?
N5 C3 C13 C9 -106(2) . . . . ?
C14 N2 C6 C8 -69.8(16) . . . . ?
C12 N2 C6 C8 54(2) . . . . ?
C14 C4 C8 C6 -18(3) . . . . ?
C10 C4 C8 C6 -134(3) . . . . ?
N2 C6 C8 C4 49(2) . . . . ?
C8 C4 C10 F21 -9.2(18) . . . . ?
C14 C4 C10 F21 -96(2) . . . . ?
C8 C4 C10 C1 136(2) . . . . ?
C14 C4 C10 C1 50(2) . . . . ?
C12 C1 C10 F21 14(3) . . . . ?
C12 C1 C10 C4 -96.8(15) . . . . ?
C6 N2 C12 C1 -113(2) . . . . ?
C14 N2 C12 C1 14(3) . . . . ?
C10 C1 C12 N2 73(2) . . . . ?
C8 C4 C14 N2 -22.7(15) . . . . ?
C10 C4 C14 N2 40.6(18) . . . . ?
C6 N2 C14 C4 68.7(13) . . . . ?
C12 N2 C14 C4 -67.2(18) . . . . ?
 
_refine_diff_density_max    2.064
_refine_diff_density_min   -1.532
_refine_diff_density_rms    0.224

_shelx_res_file
;
TITL mo_4f321_smcs_0m_a_c.res in C2
    mo_4f321_smcs_0m_a.res
    created by SHELXL-2019/3 at 20:03:30 on 18-Nov-2024
REM Old TITL mo_4F321_SmCs_0m_a.res in C14
REM SHELXT solution in C2: R1 0.207, Rweak 0.018, Alpha 0.074
REM <I/s> 0.000 for 0 systematic absences, Orientation as input
REM Flack x = 0.497 ( 0.016 ) from 1916 Parsons' quotients
REM Formula found by SHELXT: C51 N12 O11 Sm2
CELL 0.71073 23.7857 10.0887 10.041 90 91.644 90
ZERR 2 0.005 0.0022 0.0022 0 0.005 0
LATT -7
SYMM -X,+Y,-Z
SFAC C Cs F N O Sm
UNIT 56 2 8 24 48 2
DFIX 1.5 0.01 N2 C12 C12 C1 C10 C1 C4 C10
SIMU 0.01 0.02 2 F21 > C14
DANG 2.2 C10 C12
DFIX 1.4 F21 C10
DANG 1.6 O11 O13
DFIX 1.5 0.01 N2 C14
SIMU 0.01 0.02 2 Sm1 > N6
DFIX 1.54 C4 C10
DFIX 1.24 0.01 O15 N3 O2 N3 O17 N3
DFIX 1.5 0.01 N2 C6 C4 C8 C8 C6
ISOR 0.01 0.02 O17 N3 O15 O2
ISOR 0.01 0.02 C4 C10 C1 C14 C12 N2 C6 C8
DFIX 1.5 0.01 C4 C14
DANG 2.6 0.01 O2 F21
DANG 2.5 N2 C4
DANG 2.4 0.01 C14 C1
DANG 1.9 C4 C1
DANG 2.4 0.01 C12 C14
DANG 1.6 O13 O10
DANG 1.6 O8 O10
DANG 2.1 C8 C10
DANG 2.2 0.02 C1 C4
DANG 1.6 O11 O8
DANG 1.6 O16 O18
DANG 1.6 O18 O6
DANG 1.6 O6 O9
DANG 1.6 O9 O16
DANG 1.6 O7 O14
DANG 1.6 O7 O5
DANG 1.6 O5 O3
DANG 1.6 O3 O14
DFIX 1.3 0.01 O4 N6 O10 N6 O13 N6 O8 N6 O11 N6
DANG 2.3 O7 O1
DANG 2.3 O1 O5
DANG 2.3 O1 O14
DFIX 1.5 0.01 C7 C2 N5 C2
DFIX 1.5 0.01 C5 C11 N5 C11
DANG 2.35 C3 C7
DANG 2.4 C3 C2
DFIX 1.5 0.01 C13 C3
SIMU 0.01 0.02 2 F1 > C13
DFIX 1.5 0.01 C10 C8
DFIX 1.5 0.01 N2 C8
DANG 2 0.01 C8 N2
DANG 2 0.01 C4 N2
DANG 2.6 0.01 N2 C1
DANG 2.5 0.05 C12 C6
DANG 2.4 0.01 C14 C6
DFIX 1.5 0.01 C9 C13

L.S. 10
PLAN  5
SIZE 0.1 0.1 0.11
TEMP 27.85
CONF
FREE O2 C10
CONN 24 Sm1
FREE N2 C1
FREE N2 C10
FREE N2 C8
FREE C3 C2
FREE N5 C13
BIND F21 C10
FREE F21 C4
FREE F21 C8
FREE C6 C12
FREE F1 C13
BIND C13 C9
FREE C8 C10
FREE C12 C10
BIND C4 C14
FREE C4 N2
FREE C4 C1
BIND C14 N2
FREE C14 C12
FREE C14 C8
FREE C14 C1
FREE C14 C10
BIND C10 C4
FREE C7 C3
FREE C2 C13
LIST 4
MORE -1
fmap 2
acta
SHEL 999 0.74
TWIN -1 0 0 0 -1 0 0 0 -1 2
OMIT -5 -1 2
OMIT -5 1 2
OMIT -3 -3 2
OMIT -3 3 2
OMIT -2 0 1
OMIT -2 0 3
OMIT 0 6 1
OMIT 4 0 0
REM <olex2.extras>
REM <HklSrc "%.\\mo_4F321_SmCs_0m_a.hkl">
REM </olex2.extras>

WGHT    0.120900   12.357700
BASF   0.31702
FVAR       0.28177   0.60874
SM1   6    0.500000    0.190220    0.500000    10.50000    0.04706    0.02869 =
         0.02666    0.00000    0.00112    0.00000
CS1   2    0.500000   -0.312391    0.000000    10.50000    0.09209    0.03578 =
         0.03849    0.00000   -0.00944    0.00000
O1    5    0.518503   -0.090661    0.197439    11.00000    0.11680    0.07224 =
         0.06582   -0.03605    0.00298   -0.00716
O2    5    0.665466   -0.134407    0.166958    11.00000    0.09988    0.09564 =
         0.09985   -0.00524   -0.00405   -0.00720
PART 1
O3    5    0.466079    0.015540    0.319758    21.00000    0.08047    0.05328 =
         0.04402   -0.01215   -0.00939   -0.01180
PART 0
O4    5    0.507138    0.504758    0.219110    11.00000    0.13977    0.06564 =
         0.08383    0.03494    0.02559    0.01397
PART 2
O5    5    0.498134   -0.049787    0.400039   -21.00000    0.07460    0.04903 =
         0.03114   -0.01588   -0.00988   -0.00524
PART 1
O6    5    0.598554    0.135480    0.603907    21.00000    0.06134    0.05722 =
         0.06483    0.00572    0.00313    0.00668
O7    5    0.554736    0.031524    0.344951    21.00000    0.08175    0.05401 =
         0.05416   -0.01158   -0.00055    0.00981
PART 2
O8    5    0.459355    0.351951    0.327648   -21.00000    0.09455    0.04896 =
         0.04250    0.01745    0.00386    0.00323
O9    5    0.600200    0.133155    0.454588   -21.00000    0.06459    0.05378 =
         0.05998    0.00310    0.00242    0.01603
PART 1
O10   5    0.512064    0.284598    0.256553    21.00000    0.08529    0.04257 =
         0.03838    0.00774    0.00490   -0.00105
O11   5    0.505516    0.422879    0.427264    21.00000    0.09307    0.03653 =
         0.04929    0.00787    0.00531   -0.00197
PART 0
O12   5    0.676971    0.161634    0.551213    11.00000    0.05610    0.06774 =
         0.14737    0.00516   -0.00448    0.00231
PART 2
O13   5    0.550666    0.353999    0.362724   -21.00000    0.08011    0.04732 =
         0.05194    0.01382    0.00707   -0.00314
O14   5    0.505628    0.111521    0.261581   -21.00000    0.07441    0.04658 =
         0.03744   -0.01262   -0.00694   -0.00126
PART 0
O15   5    0.628052   -0.331418    0.127621    11.00000    0.12628    0.11612 =
         0.11890    0.02828   -0.01540    0.00255
PART 1
O16   5    0.603122    0.283886    0.456074    21.00000    0.06263    0.04761 =
         0.05437    0.00714    0.00661    0.00729
PART 0
O17   5    0.621295   -0.182617   -0.016632    11.00000    0.12470    0.13367 =
         0.10210    0.00591    0.00235   -0.02085
PART 2
O18   5    0.596580    0.277298    0.602118   -21.00000    0.05929    0.04540 =
         0.05692    0.00053   -0.00121    0.01935
PART 0
N1    4    0.625144    0.173914    0.536361    11.00000    0.05669    0.04937 =
         0.06432    0.00685    0.00457    0.00764
N3    4    0.642455   -0.219784    0.092178    11.00000    0.11110    0.11849 =
         0.10638    0.01819    0.00151   -0.00695
N4    4    0.508132   -0.014014    0.278533    11.00000    0.07916    0.05094 =
         0.04335   -0.01818   -0.00621   -0.00352
N6    4    0.507850    0.404763    0.300943    11.00000    0.09902    0.05054 =
         0.05107    0.02033    0.00725    0.00200

F1    3    0.724767   -0.415394    0.701730    11.00000    0.17585    0.15165 =
         0.12777    0.04236   -0.05619    0.00827
N5    4    0.653125   -0.337482    0.424663    11.00000    0.08328    0.12696 =
         0.10170    0.02175   -0.00735   -0.04588
C2    1    0.592031   -0.366306    0.453823    11.00000    0.09449    0.12574 =
         0.12862    0.00916   -0.00217   -0.03616
C3    1    0.684203   -0.425678    0.492912    11.00000    0.09017    0.10186 =
         0.11469    0.01690   -0.00109   -0.01797
C5    1    0.685856   -0.194169    0.607667    11.00000    0.10615    0.14214 =
         0.12222    0.02911   -0.02267   -0.04271
C7    1    0.590856   -0.354524    0.601606    11.00000    0.10027    0.12098 =
         0.12747    0.00705    0.00767   -0.03500
C9    1    0.675137   -0.336642    0.693195    11.00000    0.11452    0.14389 =
         0.11236    0.03416   -0.03104   -0.02654
C11   1    0.655532   -0.197296    0.471459    11.00000    0.09365    0.12591 =
         0.11399    0.03916   -0.02357   -0.04655
C13   1    0.640012   -0.415936    0.597838    11.00000    0.10139    0.12402 =
         0.11815    0.02156   -0.01136   -0.03512
F21   3    0.677850    0.060401    0.003229    11.00000    0.22980    0.26036 =
         0.15361   -0.02580   -0.06076   -0.02807
N2    4    0.648847    0.292971    0.022750    11.00000    0.11813    0.13765 =
         0.12963    0.00293   -0.00198    0.00513
C1    1    0.593645    0.146156    0.176038    11.00000    0.13922    0.15051 =
         0.14577    0.00109   -0.00125   -0.00183
C4    1    0.589373    0.153714   -0.034680    11.00000    0.11050    0.13126 =
         0.11463    0.00069   -0.01682   -0.00994
C6    1    0.682783    0.260257   -0.095596    11.00000    0.12057    0.14201 =
         0.13183   -0.00329    0.00940   -0.00065
C8    1    0.649603    0.139017   -0.057943    11.00000    0.13429    0.13815 =
         0.13880   -0.00335   -0.00622    0.00401
C10   1    0.624357    0.074214    0.065208    11.00000    0.12720    0.14134 =
         0.13343   -0.00659   -0.00199   -0.00259
C12   1    0.649880    0.215418    0.152624    11.00000    0.11259    0.13169 =
         0.11856    0.00337   -0.00423   -0.00407
C14   1    0.587248    0.298898   -0.013718    11.00000    0.10828    0.13625 =
         0.11511   -0.00021   -0.01329    0.00086
HKLF 4




REM  mo_4f321_smcs_0m_a_c.res in C2
REM wR2 = 0.2194, GooF = S = 1.119, Restrained GooF = 1.290 for all data
REM R1 = 0.0680 for 4859 Fo > 4sig(Fo) and 0.0852 for all 6201 data
REM 373 parameters refined using 478 restraints

END

WGHT      0.1212     12.3071

REM Highest difference peak  2.064,  deepest hole -1.532,  1-sigma level  0.224
Q1    1   0.7267  0.3906  0.0815  11.00000  0.05    2.06
Q2    1   0.7287 -0.0089  0.0827  11.00000  0.05    1.92
Q3    1   0.5810 -0.3148  0.5501  11.00000  0.05    1.39
Q4    1   0.6995  0.2472 -0.0849  11.00000  0.05    1.37
Q5    1   0.7013  0.1676 -0.0735  11.00000  0.05    1.35
;
_shelx_res_checksum   65562

_shelx_hkl_file
;
  -4   0   0  722.87   33.80
   6   0   0 9999.00  466.87
  -6   0   0 8048.58  453.84
  -8   0   0 4883.95  210.34
   8   0   0 5016.59  210.09
 -10   0   0 3564.75  159.42
  10   0   0 3718.88  159.09
 -12   0   0 2405.83  111.57
 -14   0   0 1051.24   62.45
 -14   0   0 1078.73   58.27
 -16   0   0  715.87   50.19
  16   0   0  779.42   35.55
  16   0   0  693.02   32.62
 -16   0   0  731.36   46.40
  16   0   0  754.98   32.32
  18   0   0  388.03   21.84
  18   0   0  395.47   18.79
 -18   0   0  420.25   33.58
  18   0   0  379.45   19.06
 -18   0   0  443.52   37.52
  20   0   0  379.34   21.86
  20   0   0  392.73   18.41
  20   0   0  345.88   18.32
 -20   0   0  360.53   33.56
 -20   0   0  397.15   37.46
 -22   0   0  316.42   37.42
  22   0   0  406.38   18.92
  22   0   0  386.48   22.71
 -22   0   0  387.32   36.65
  22   0   0  329.14   19.34
  24   0   0  112.68    8.36
 -24   0   0  128.44   26.09
 -24   0   0  123.93   27.86
  24   0   0  125.31   11.77
  26   0   0   45.38    8.99
 -26   0   0   49.52   22.62
 -26   0   0   40.83   20.68
  26   0   0   49.74    5.42
 -28   0   0    8.16   24.61
 -28   0   0   34.93   24.07
  28   0   0   29.10    7.48
  28   0   0   34.11    5.58
 -30   0   0   34.85   27.80
  30   0   0   29.25    5.69
  30   0   0   26.34    7.80
  32   0   0    8.16    5.81
 -32   0   0    4.08   31.19
  32   0   0   24.87    5.35
  34   0   0    8.06    4.20
  34   0   0    0.31    4.28
  36   0   0    8.83    6.35
  -1  -1   0  500.35   26.95
   1  -1   0  535.10   24.75
   1   1   0  459.85   27.13
  -3  -1   0  598.86   34.47
  -3  -1   0  604.22   31.80
   3  -1   0  627.33   28.20
  -3   1   0  644.71   28.25
   5  -1   0   35.51    4.04
  -5  -1   0   37.46    3.19
  -5  -1   0   35.61    3.19
   5  -1   0   36.79    2.93
   5   1   0   54.13    3.64
   5   1   0   54.19    3.14
  -5   1   0   54.85    4.88
  -5   1   0   53.43    3.28
   5   1   0   51.67    2.30
   5   1   0   57.61    3.82
   7  -1   0  132.49    8.86
  -7  -1   0  110.84   12.82
  -7  -1   0  131.73    5.82
  -7  -1   0  137.25    6.94
   7   1   0  105.32    6.75
   7   1   0  101.99    6.42
  -7   1   0   97.07    6.02
  -7   1   0  101.51    8.44
   7   1   0  101.52    5.13
   7   1   0   96.93    5.75
  -9  -1   0  132.15    8.07
   9  -1   0  139.84    6.58
  -9  -1   0  118.74   14.40
   9  -1   0  138.61    6.34
   9  -1   0  132.78    7.53
   9  -1   0  124.28   10.42
  -9  -1   0  126.36    7.53
  -9  -1   0  131.54    6.89
  -9   1   0  149.05   11.47
   9   1   0  147.76    6.73
   9   1   0  144.11    7.39
  -9   1   0  151.45    7.89
   9   1   0  156.17    8.87
   9   1   0  142.40    8.18
 -11  -1   0  428.85   17.99
  11  -1   0  400.98   18.90
 -11  -1   0  369.60   32.57
  11  -1   0  414.30   17.52
 -11  -1   0  453.56   20.10
 -11  -1   0  416.95   29.81
 -11  -1   0  415.95   18.74
  11   1   0  390.83   18.51
 -11   1   0  362.10   23.93
 -11   1   0  394.88   19.08
  11   1   0  386.54   17.85
  11   1   0  412.32   20.44
 -13  -1   0    4.55   10.24
  13  -1   0   14.64    3.12
 -13  -1   0   18.02    2.70
 -13  -1   0   15.78    2.07
 -13  -1   0   14.36    8.14
  13  -1   0   17.30    3.04
  13  -1   0   16.27    2.05
  13  -1   0    9.58    5.40
  13   1   0   24.75    4.26
 -13   1   0   22.63    3.33
  13   1   0   25.35    2.22
 -13   1   0   28.43    7.87
  15  -1   0   21.25    4.12
 -15  -1   0   19.43    2.14
 -15  -1   0   22.20   12.69
  15  -1   0   21.79    3.45
 -15  -1   0   12.01    8.61
  15  -1   0   20.05    2.49
 -15  -1   0   17.20    1.78
  15   1   0   22.06    3.42
  15   1   0   12.62    3.68
 -15   1   0   19.40    7.97
  15   1   0   17.71    2.15
 -17  -1   0   78.44   21.12
  17  -1   0   63.15    4.35
  17  -1   0   62.07    5.21
  17  -1   0   59.32    6.29
 -17  -1   0   61.92    3.34
 -17  -1   0   78.11   17.96
  17   1   0   74.31    7.44
 -17   1   0   59.78   12.95
 -17   1   0   68.59   15.00
  17   1   0   64.15    5.24
  17   1   0   65.98    4.62
 -19  -1   0   29.64   16.90
  19  -1   0   57.86    6.56
  19  -1   0   59.15    5.53
  19  -1   0   59.36    4.31
 -19  -1   0   57.53   16.88
  19   1   0   51.44    4.21
  19   1   0   37.15    6.90
 -19   1   0   49.13   12.95
 -19   1   0   73.90   17.53
  19   1   0   46.52    4.81
  21  -1   0   66.79    7.58
  21  -1   0   58.02    4.76
 -21  -1   0   75.21   20.22
 -21  -1   0   57.86   21.02
  21   1   0   58.50    9.12
  21   1   0   55.08    5.58
 -21   1   0   41.16   15.22
  21   1   0   65.93    4.97
 -21   1   0   76.41   15.82
 -23  -1   0   26.59   20.15
  23  -1   0   37.87    7.38
  23  -1   0   41.14    4.26
 -23  -1   0   16.84   17.58
 -23   1   0   53.11   18.12
  23   1   0   56.44    7.10
  23   1   0   40.28    8.04
 -23   1   0   37.88   15.75
  23   1   0   41.72    4.04
 -25  -1   0  -18.09   20.10
  25  -1   0   19.48    5.58
  25  -1   0   13.94    3.11
 -25  -1   0  -23.29   18.94
  25   1   0   19.31    6.24
  25   1   0   18.76    4.36
 -25   1   0   -2.69   14.40
 -25   1   0    7.01   16.27
 -27  -1   0   15.80   25.47
  27  -1   0   16.17    3.60
  27  -1   0   16.86    5.54
 -27  -1   0   10.03   24.26
 -27   1   0   54.21   19.85
  27   1   0   12.24    3.86
 -27   1   0   25.49   18.15
  27   1   0   27.74    7.42
  29  -1   0   13.83    3.76
  29  -1   0   11.31    5.07
 -29  -1   0  -28.53   27.33
 -29   1   0   13.34   18.90
  29   1   0    6.94    4.97
 -29   1   0   13.21   18.85
  29   1   0   19.11    4.65
 -31  -1   0    5.31   35.51
  31  -1   0    4.33    4.33
  31  -1   0    4.96    3.05
  31   1   0   10.75    6.25
 -31   1   0    9.29   16.98
  31   1   0   16.19    4.75
  33  -1   0    3.41    4.57
 -33  -1   0    1.80   42.78
  33  -1   0    7.08    3.60
  33   1   0    6.95    5.32
  33   1   0    2.73    3.74
  35  -1   0   -2.00    2.25
  35  -1   0   -0.17    3.84
  35   1   0   -0.87    3.94
  35   1   0    2.82    3.69
   0  -2   0 8587.75  435.25
   0   2   0 8960.53  438.20
  -2  -2   0  630.23   35.53
   2   2   0  454.89   33.04
  -4   2   0  239.18   16.01
   4   2   0  261.93   12.40
   4   2   0  257.73   12.94
  -4   2   0  252.52   12.06
  -6  -2   0 1031.14   55.94
  -6  -2   0 1068.49   61.49
   6  -2   0 1036.40   48.21
  -6   2   0 1087.06   48.69
  -8  -2   0 1388.90   78.04
   8  -2   0 1414.95   61.44
  -8  -2   0 1370.43   72.02
  -8   2   0 1387.01   62.09
  10  -2   0 1336.26   61.39
 -10  -2   0 1392.05   80.40
 -10   2   0 1441.10   62.92
  12  -2   0 1015.27   47.29
 -12  -2   0  890.92   63.82
 -12  -2   0 1068.69   61.24
 -12   2   0 1064.98   49.06
 -14  -2   0  585.66   49.16
 -14  -2   0  609.73   27.34
 -14  -2   0  654.83   29.85
  14  -2   0  649.56   32.24
  14  -2   0  697.42   26.52
 -14  -2   0  629.75   45.50
 -14  -2   0  606.03   28.57
  14  -2   0  576.14   28.43
 -14   2   0  594.71   33.41
  14   2   0  582.63   28.42
  14   2   0  589.45   26.37
  14   2   0  631.62   30.98
 -16  -2   0  397.22   18.85
 -16  -2   0  425.00   20.09
  16  -2   0  404.56   18.17
 -16  -2   0  405.98   37.59
  16  -2   0  410.39   21.20
 -16  -2   0  422.68   41.61
  16  -2   0  392.09   20.28
  16   2   0  414.15   18.28
 -16   2   0  430.79   26.55
  16   2   0  433.56   20.65
  16   2   0  395.92   22.75
 -18  -2   0  171.25   31.23
  18  -2   0  186.80   11.84
  18  -2   0  174.40    8.57
 -18  -2   0  170.04   28.11
 -18  -2   0  172.20    9.59
 -18  -2   0  169.88    8.83
 -18   2   0  175.53   18.14
  18   2   0  151.66    8.41
 -18   2   0  156.74   16.37
  18   2   0  153.79   12.53
  18   2   0  159.86   10.47
 -20  -2   0  241.73   11.90
 -20  -2   0  264.66   38.66
 -20  -2   0  244.32   11.44
 -20  -2   0  230.72   40.19
  20  -2   0  249.30   11.86
  20  -2   0  251.10   15.49
  20   2   0  222.78   16.58
  20   2   0  223.15   11.63
  20   2   0  224.78   13.90
 -20   2   0  223.00   21.38
 -20   2   0  248.09   21.09
  22  -2   0  166.52    9.22
  22  -2   0  169.96   12.93
 -22  -2   0  168.52   32.12
 -22  -2   0  213.22   38.69
  22   2   0  170.13    9.10
  22   2   0  155.29   11.21
  22   2   0  164.56   14.16
 -22   2   0  198.22   19.60
 -22   2   0  166.13   19.43
 -24  -2   0   61.88   26.81
  24  -2   0   87.76    6.04
  24  -2   0   72.05    8.63
 -24  -2   0   99.72   30.84
 -24   2   0   79.75   14.54
 -24   2   0   67.65   13.54
  24   2   0   87.12   12.66
  24   2   0   91.27    8.13
  26  -2   0   44.72    8.50
  26  -2   0   42.21    4.21
 -26  -2   0   19.12   27.98
 -26  -2   0   29.34   25.78
 -26   2   0   34.62    9.63
  26   2   0   35.60    8.35
  26   2   0   46.87    7.46
 -26   2   0   24.11    9.82
  28  -2   0   30.27    4.74
 -28  -2   0   12.19   30.80
  28  -2   0   21.65    6.82
 -28  -2   0   21.15   32.30
  28   2   0   19.20    6.68
  28   2   0   24.72    5.62
 -30  -2   0   58.70   40.29
  30  -2   0   25.85    4.44
  30  -2   0   22.18    6.65
  30   2   0   22.59    7.72
  30   2   0   22.86    5.52
 -32  -2   0  -31.38   45.73
  32  -2   0   19.14    4.29
  32  -2   0   18.33    6.73
  32   2   0   20.56    7.30
  32   2   0   13.46    4.92
  34  -2   0    2.74    4.93
 -34  -2   0    1.12   64.96
  34  -2   0    6.46    3.61
  34   2   0    8.95    5.43
  34   2   0    6.28    5.51
   1  -3   0   69.35    4.75
  -1  -3   0   68.86    4.68
  -1  -3   0   77.51    5.21
  -1  -3   0   74.90   14.21
  -1  -3   0   70.71    3.94
   1  -3   0   72.54   13.69
  -1  -3   0   70.64    5.11
   1  -3   0   68.16    4.20
   1  -3   0   66.00    4.73
   1   3   0   33.32   10.72
  -1   3   0   56.76    4.39
   1   3   0   53.57    4.66
  -3  -3   0  433.54   19.98
  -3  -3   0  388.77   32.62
   3  -3   0  414.04   28.06
  -3  -3   0  432.84   20.58
   3  -3   0  421.25   19.55
  -3  -3   0  409.70   20.56
   3  -3   0  444.93   19.69
   3   3   0  444.75   20.94
   3   3   0  455.85   20.53
  -3   3   0  437.44   29.18
   5  -3   0   39.06    3.43
   5  -3   0   43.29    8.62
  -5  -3   0   42.50   14.47
   5  -3   0   40.79    3.03
  -5  -3   0   40.14    4.04
  -5  -3   0   35.21    2.11
  -5  -3   0   46.24   11.06
  -5  -3   0   38.41    5.10
  -5  -3   0   41.15    3.58
   5   3   0   41.48    4.35
   5   3   0   46.50    4.08
  -5   3   0   46.23    8.95
  -5   3   0   48.02    3.78
   7  -3   0  146.43   13.19
  -7  -3   0  150.86    8.79
  -7  -3   0  170.74    9.91
  -7  -3   0  186.37   22.85
   7  -3   0  161.27    7.76
  -7  -3   0  160.23   10.00
  -7  -3   0  168.79   19.07
   7  -3   0  154.99    8.95
   7   3   0  153.29   10.20
  -7   3   0  170.90    9.35
  -7   3   0  155.17   13.94
   7   3   0  162.39    9.55
   9  -3   0   57.17    3.33
   9  -3   0   58.23    8.49
   9  -3   0   62.64    4.95
  -9  -3   0   65.45    5.74
  -9  -3   0   63.22    5.47
  -9  -3   0   58.59    4.55
  -9  -3   0   62.83   14.26
  -9  -3   0   45.11   15.72
  -9   3   0   58.68    4.98
  -9   3   0   65.25    8.37
   9   3   0   64.62    5.29
   9   3   0   51.15    5.63
  11  -3   0  204.63   11.33
 -11  -3   0  210.53   10.88
  11  -3   0  192.59    9.04
 -11  -3   0  199.33   12.14
  11  -3   0  204.85   13.33
 -11  -3   0  176.64   30.48
 -11  -3   0  194.30   23.55
 -11  -3   0  194.30   11.90
  11   3   0  196.90   11.61
 -11   3   0  224.11   14.80
 -11   3   0  191.02   11.48
  11   3   0  190.11   12.82
 -13  -3   0   14.08    3.62
  13  -3   0   15.74    3.02
 -13  -3   0   19.16   11.74
  13  -3   0    7.78    3.72
  13  -3   0   13.90    1.51
 -13  -3   0    2.65   11.58
 -13  -3   0   17.74    3.91
 -13  -3   0   18.67    3.03
  13   3   0   21.84    4.69
  13   3   0   17.30    3.71
 -13   3   0   19.48    3.83
 -13   3   0   21.94    5.36
 -15  -3   0   36.96   18.93
 -15  -3   0   38.73    5.90
 -15  -3   0   26.11    4.67
 -15  -3   0   42.69    3.91
  15  -3   0   35.68    2.69
 -15   3   0   37.83    5.50
  15   3   0   41.94    7.37
 -15   3   0   39.39    6.14
  15   3   0   37.29    5.62
 -17  -3   0   21.24   17.23
 -17  -3   0   38.89    3.95
 -17  -3   0   63.74   18.16
 -17  -3   0   49.76    6.46
  17  -3   0   41.42    3.17
 -17  -3   0   50.77    7.17
 -17   3   0   48.38    6.20
 -17   3   0   48.99    6.15
  17   3   0   52.05    5.60
  17   3   0   53.43    8.51
  19  -3   0   27.20    2.51
 -19  -3   0   22.43   19.62
 -19  -3   0   30.19    3.94
  19  -3   0   16.26    4.09
 -19  -3   0   21.65    4.38
 -19  -3   0   39.01   20.55
  19   3   0   24.87    5.06
  19   3   0   19.87    6.00
  21  -3   0   13.97    3.95
 -21  -3   0   12.87    2.61
 -21  -3   0   17.64   19.76
  21  -3   0   12.64    2.26
 -21  -3   0   17.02    3.51
 -21  -3   0   -0.40   19.24
  21   3   0    6.39    4.07
  21   3   0   12.39    3.82
 -23  -3   0   22.67    3.42
  23  -3   0   21.87    3.19
 -23  -3   0   25.12   24.89
 -23  -3   0   14.31   20.78
 -23  -3   0   22.20    3.04
  23  -3   0   22.84    5.67
  23   3   0   21.48    5.29
  23   3   0   23.14    6.75
  25  -3   0   11.16    4.30
 -25  -3   0   30.43   31.85
 -25  -3   0   25.18   23.70
  25  -3   0   18.32    2.96
  25   3   0   15.99    5.53
  25   3   0   21.61    5.31
  27  -3   0   12.33    2.79
 -27  -3   0  -17.98   30.03
  27  -3   0    6.83    3.97
 -27  -3   0  -23.87   31.07
  27   3   0   12.95    5.92
  27   3   0    4.05    3.92
  29  -3   0   12.38    2.98
 -29  -3   0  -63.58   37.83
  29  -3   0   13.01    4.83
  29   3   0    2.55    3.81
  29   3   0   11.90    6.29
  31  -3   0    9.80    2.93
 -31  -3   0    7.02   48.15
  31  -3   0    7.47    4.96
  31   3   0    8.90    4.60
  31   3   0    4.09    4.80
  33  -3   0    4.13    2.78
  33  -3   0   -0.73    3.24
  33   3   0    1.56    3.66
  33   3   0    2.14    4.35
  35  -3   0    3.70    4.91
  35   3   0   -0.06    3.96
  35   3   0    0.61    4.40
   0  -4   0 2384.03  114.91
   0   4   0 2170.10  114.98
  -2  -4   0 3493.25  159.20
   2  -4   0 3572.53  154.07
  -2   4   0 2721.41  163.97
  -4  -4   0 3145.58  151.04
  -4  -4   0 2998.89  143.27
   4  -4   0 3031.44  140.21
  -4   4   0 2953.88  141.23
   6  -4   0 2725.66  127.38
  -6  -4   0 2870.13  135.51
  -6  -4   0 2822.94  143.10
  -6   4   0 2698.84  128.59
   8  -4   0 1992.74   95.73
  -8  -4   0 1965.82  105.95
  -8  -4   0 2053.65  115.00
  -8   4   0 2172.82   97.93
 -10  -4   0 1585.25   91.18
  10  -4   0 1706.37   77.81
 -10  -4   0 1547.19   97.90
 -10   4   0 1698.34   78.92
 -12  -4   0 1256.42   55.22
  12  -4   0 1275.87   57.70
 -12  -4   0 1218.26   75.25
 -12  -4   0 1314.73   85.44
  12  -4   0 1041.88   51.26
 -12  -4   0 1300.75   53.61
 -12   4   0 1242.61   59.22
  14  -4   0  857.20   40.15
 -14  -4   0  869.70   39.63
 -14  -4   0  823.84   61.07
 -14  -4   0  886.90   41.95
 -14  -4   0  929.76   41.90
 -14  -4   0  905.39   70.36
 -14   4   0  896.11   42.34
 -14   4   0  879.42   41.16
  14   4   0  929.35   43.96
  14   4   0  866.34   41.45
 -16  -4   0  434.14   49.55
 -16  -4   0  475.74   24.83
  16  -4   0  480.87   20.88
 -16  -4   0  449.44   22.57
 -16  -4   0  481.94   24.96
 -16  -4   0  493.54   45.10
  16   4   0  435.68   24.44
  16   4   0  468.63   26.92
 -16   4   0  482.35   24.57
 -18  -4   0  370.03   47.64
  18  -4   0  345.87   16.19
 -18  -4   0  359.70   19.92
 -18  -4   0  348.61   17.98
  18   4   0  374.71   22.95
  18   4   0  336.71   20.11
 -20  -4   0  140.85    9.07
 -20  -4   0  153.11   42.25
 -20  -4   0  148.14   10.77
 -20  -4   0  180.14   39.11
  20  -4   0  141.78    7.75
  20  -4   0  143.36   10.85
  20   4   0  147.15   11.56
  20   4   0  134.69   13.16
 -22  -4   0  123.67    8.08
  22  -4   0  134.19   10.69
 -22  -4   0   72.83   32.27
 -22  -4   0  122.94    9.31
 -22  -4   0   74.89   27.91
  22  -4   0  112.30    6.79
  22   4   0  123.04   12.77
  22   4   0  119.32   10.68
 -24  -4   0   96.10    6.88
  24  -4   0   99.04    6.23
 -24  -4   0  118.30    8.29
  24  -4   0   93.52    9.65
 -24  -4   0   75.62   34.95
 -24  -4   0  123.32   38.33
  24   4   0  105.88   15.15
  24   4   0   94.24    9.88
 -26  -4   0   22.24   34.30
 -26  -4   0   41.06   37.57
  26  -4   0   43.63    8.04
 -26  -4   0   46.06    4.29
  26  -4   0   52.57    4.23
  26   4   0   50.01   11.17
  26   4   0   60.64    9.62
  28  -4   0   41.73    8.53
  28  -4   0   39.06    3.86
 -28  -4   0  -39.43   36.40
  28   4   0   33.39    7.14
  28   4   0   44.96   10.72
  30  -4   0   15.74    3.20
 -30  -4   0   61.34   53.16
  30  -4   0   13.33    5.72
  30   4   0   11.58    5.37
  30   4   0   20.59    7.43
  32  -4   0   14.28    3.30
  32  -4   0   11.25    5.60
  32   4   0    6.81    5.95
  32   4   0   18.94    6.26
  34  -4   0    4.16    5.02
  34   4   0   20.94    8.68
  34   4   0    5.36    5.20
   1  -5   0   11.23    9.56
   1  -5   0   25.87    4.38
   1  -5   0   23.25    3.82
  -1  -5   0   30.30    5.14
  -1  -5   0   27.82    4.31
  -1  -5   0   31.11    4.90
  -1  -5   0   36.12   13.75
   1  -5   0   31.94    4.84
  -1  -5   0   23.10    2.48
   1  -5   0   23.50    2.67
   1   5   0   17.13    3.54
   1   5   0   17.08    2.79
  -1   5   0   15.16    2.83
  -1   5   0   13.39    3.06
  -1   5   0   19.01   14.37
  -3  -5   0    3.71    2.23
  -3  -5   0    1.61    7.12
   3  -5   0   -0.96    0.93
  -3  -5   0    0.11    0.64
   3  -5   0    3.15    7.79
   3  -5   0    0.10    0.79
  -3  -5   0    1.63    1.55
  -3  -5   0    0.44    1.55
   3  -5   0    0.10    1.29
  -3  -5   0    5.49   10.35
   3   5   0    2.05    1.02
  -3   5   0    2.56    8.40
   3   5   0    0.95    1.84
  -3   5   0    1.48    1.25
  -5  -5   0  192.15   12.35
   5  -5   0  186.25   10.83
  -5  -5   0  178.96    8.98
   5  -5   0  184.12   21.84
  -5  -5   0  161.97   21.51
  -5  -5   0  192.50   11.95
  -5  -5   0  180.91   10.96
   5  -5   0  197.70   10.81
   5  -5   0  198.58   10.98
  -5  -5   0  205.60   32.07
  -5   5   0  202.56   24.36
  -5   5   0  188.46   11.00
   5   5   0  163.14   11.96
  -7  -5   0   19.59    4.12
  -7  -5   0   19.81    3.62
   7  -5   0   18.20    3.35
   7  -5   0   20.09    9.20
  -7  -5   0    5.95   12.78
  -7  -5   0   17.06    4.21
  -7  -5   0   17.55   10.57
  -7  -5   0   17.91    1.59
   7  -5   0   14.19    2.99
   7  -5   0   21.23    3.55
  -7   5   0   18.85    3.68
  -7   5   0    8.10    9.44
   7   5   0   12.26    3.58
   7   5   0   18.70    4.77
   9  -5   0   33.16    3.50
  -9  -5   0   39.34    5.41
   9  -5   0   25.11    9.21
  -9  -5   0   46.92   16.30
  -9  -5   0   35.42    5.62
  -9  -5   0   27.58   17.00
  -9  -5   0   42.74    7.20
   9   5   0   42.93    7.28
  -9   5   0   38.61    5.68
   9   5   0   33.39    5.68
  -9   5   0   41.63   12.83
 -11  -5   0    4.29    2.85
 -11  -5   0   10.25    2.94
  11  -5   0   12.74    8.29
 -11  -5   0   17.80   14.48
 -11  -5   0   20.57   14.92
  11  -5   0    4.84    1.82
 -11  -5   0    7.51    2.80
 -11   5   0    9.10    8.32
  11   5   0   11.21    3.72
  11   5   0   13.10    4.46
 -11   5   0   13.76    3.67
  13  -5   0   21.64    8.11
 -13  -5   0   16.82   18.51
 -13  -5   0   21.67   16.57
 -13  -5   0   21.66    4.80
 -13  -5   0   21.02    5.06
 -13  -5   0   28.62    4.52
  13  -5   0   22.61    3.27
  13   5   0   18.40    5.41
  13   5   0   19.05    4.68
 -13   5   0   28.65    5.37
 -15  -5   0   56.02   20.64
 -15  -5   0  100.52   28.26
 -15  -5   0   52.19    5.30
  15  -5   0   54.94    4.38
  15  -5   0   59.38    7.61
 -15  -5   0   60.55    6.52
 -15  -5   0   63.85    8.89
  15  -5   0   73.78    7.19
  15   5   0   76.15    9.74
  15   5   0   46.50    8.28
 -15   5   0   55.93    6.42
  17  -5   0   76.29    5.27
 -17  -5   0   74.58    6.57
 -17  -5   0  119.92   28.48
 -17  -5   0   75.02    8.18
 -17  -5   0   96.07   32.68
  17   5   0   81.37   11.54
  17   5   0   77.31    8.36
 -19  -5   0   22.65   24.41
 -19  -5   0    9.96    3.79
  19  -5   0   15.68    2.68
 -19  -5   0   29.31   21.07
 -19  -5   0   10.74    2.93
  19   5   0    6.43    4.22
  19   5   0   15.30    4.99
 -21  -5   0   29.63    5.87
  21  -5   0   32.56    3.17
 -21  -5   0   34.74    5.00
 -21  -5   0   14.88   27.06
 -21  -5   0   28.73   24.52
  21   5   0   25.57    6.23
  21   5   0   26.33    7.76
  23  -5   0   26.11    2.90
 -23  -5   0  -35.94   30.65
 -23  -5   0   30.98    4.89
  23  -5   0   29.02    6.24
 -23  -5   0   37.37    6.29
  23   5   0   21.93    7.20
  23   5   0   41.80    8.42
 -25  -5   0   14.31   31.82
 -25  -5   0   17.53    4.13
  25  -5   0   16.88    2.74
  25  -5   0   11.95    4.65
 -25  -5   0    5.09   35.27
  25   5   0    7.49    5.37
  25   5   0   18.84    5.76
 -27  -5   0  -22.15   44.09
  27  -5   0   14.42    5.25
 -27  -5   0    0.27    1.10
 -27  -5   0    3.44    2.48
  27  -5   0   14.22    2.62
  27   5   0   10.77    5.42
  27   5   0   15.70    6.46
 -29  -5   0   60.95   49.73
  29  -5   0    9.70    2.40
  29  -5   0    3.01    3.73
  29   5   0    6.89    4.77
  29   5   0   14.96    5.51
  31  -5   0    3.53    3.95
  31  -5   0    9.51    2.45
  31   5   0    5.13    4.79
  31   5   0    1.00    4.46
  33  -5   0    8.25    5.61
  33   5   0   -2.02    4.12
  33   5   0   -1.91    3.83
   0  -6   0 1291.63   57.06
   0  -6   0 1297.59   57.78
   0  -6   0 1282.86   81.24
  -2  -6   0 1103.09   71.35
   2  -6   0 1220.42   53.60
  -2  -6   0 1145.41   53.87
   2  -6   0 1281.32   76.37
  -2  -6   0 1210.78   53.23
   2  -6   0 1193.53   53.88
  -2  -6   0 1158.56   78.95
   2  -6   0 1231.39   53.17
  -4  -6   0 1133.03   70.33
  -4  -6   0 1100.31   76.88
  -4  -6   0 1101.06   49.16
  -4  -6   0 1102.55   50.22
   4  -6   0 1110.33   69.24
   4  -6   0 1063.75   49.31
   4  -6   0 1070.26   48.27
  -4  -6   0 1128.58   51.12
   4  -6   0 1072.74   49.10
  -4   6   0 1073.14   71.79
   4   6   0 1115.79   50.85
  -6  -6   0 1106.40   50.48
   6  -6   0 1149.26   50.54
   6  -6   0 1144.10   50.41
  -6  -6   0 1175.28   74.17
   6  -6   0 1099.58   67.96
  -6  -6   0 1192.82   82.29
  -6  -6   0 1120.39   51.70
   6   6   0 1080.08   52.49
  -6   6   0 1138.48   71.76
  -8  -6   0  509.50   22.74
   8  -6   0  540.09   25.68
   8  -6   0  526.97   25.76
  -8  -6   0  521.07   28.22
  -8  -6   0  532.14   26.03
  -8  -6   0  572.10   55.48
  -8  -6   0  532.40   27.29
   8  -6   0  516.52   39.98
  -8  -6   0  479.99   45.63
  -8   6   0  570.83   26.75
   8   6   0  511.61   28.39
  -8   6   0  520.98   43.49
  10  -6   0  278.60   14.73
 -10  -6   0  258.58   15.08
  10  -6   0  292.97   28.07
 -10  -6   0  288.83   35.89
 -10  -6   0  324.79   48.76
  10  -6   0  278.78   15.22
 -10  -6   0  289.46   16.79
 -10  -6   0  277.71   17.68
  10   6   0  250.31   17.59
 -10   6   0  262.90   15.87
  10   6   0  228.06   16.37
 -12  -6   0  360.35   54.68
 -12  -6   0  361.44   20.62
  12  -6   0  340.29   17.92
 -12  -6   0  362.68   21.65
 -12  -6   0  340.83   18.93
  12  -6   0  353.95   29.65
 -12  -6   0  310.56   37.53
  12   6   0  367.73   21.49
  12   6   0  364.54   22.61
 -12   6   0  388.98   20.49
 -14  -6   0  239.91   15.00
  14  -6   0  275.59   20.82
 -14  -6   0  294.35   43.23
 -14  -6   0  279.71   18.06
  14  -6   0  275.78   22.86
  14  -6   0  272.79   14.16
 -14  -6   0  262.15   49.03
  14   6   0  264.10   17.62
  14   6   0  247.71   18.47
 -14   6   0  269.63   16.65
 -16  -6   0  355.71   22.02
  16  -6   0  359.58   19.80
  16  -6   0  391.85   21.06
 -16  -6   0  369.24   19.45
 -16  -6   0  256.71   51.34
  16  -6   0  363.49   17.72
 -16  -6   0  282.50   43.75
  16   6   0  341.64   21.86
  16   6   0  334.05   23.24
 -18  -6   0  192.34   14.73
 -18  -6   0  214.92   41.11
  18  -6   0  181.45   10.65
 -18  -6   0  224.52   48.02
 -18  -6   0  194.90   12.47
  18   6   0  201.87   15.14
  18   6   0  195.14   16.60
  20  -6   0   75.34    5.52
 -20  -6   0   74.42    6.84
 -20  -6   0   86.17   11.13
 -20  -6   0   57.42   28.82
 -20  -6   0   31.71   32.79
  20   6   0   68.82   10.70
  20   6   0   73.29   12.80
 -22  -6   0   64.73   38.12
  22  -6   0   79.34    5.58
 -22  -6   0   82.64   11.18
 -22  -6   0   76.82    7.12
 -22  -6   0   18.33   29.85
  22   6   0   89.82   13.98
  22   6   0   66.85   10.73
 -24  -6   0   14.21   34.96
 -24  -6   0    1.13   39.24
 -24  -6   0   92.31    9.02
  24  -6   0   75.48    5.54
  24  -6   0   80.60    8.79
 -24  -6   0   73.41    7.04
  24   6   0   79.65   13.94
  24   6   0   81.27   12.38
 -26  -6   0   51.03    7.82
  26  -6   0   42.54    8.01
  26  -6   0   50.63    4.21
  26   6   0   24.88    8.55
  26   6   0   42.43    9.06
 -28  -6   0   25.13   52.54
  28  -6   0   18.76    3.15
  28   6   0   20.16    7.95
  28   6   0   33.75    8.86
  30  -6   0   10.93    4.43
  30  -6   0    6.54    3.83
  30   6   0    6.18    6.01
  30   6   0    5.37    4.77
  32  -6   0    1.61    3.69
  32   6   0    8.99    6.43
  32   6   0    3.49    5.40
  -1  -7   0    3.77    2.60
   1  -7   0   12.75    3.86
  -1  -7   0   10.54    3.16
   1  -7   0    1.13   10.02
   1  -7   0   10.85    2.65
   1  -7   0    7.55    2.80
   1  -7   0    2.51    2.05
  -1  -7   0   10.74    3.01
  -1  -7   0   -6.41   10.30
   1  -7   0   -0.62   12.42
  -1  -7   0   12.42    2.66
  -1  -7   0    0.46   13.13
  -1   7   0   10.19    3.12
  -1   7   0   10.79    2.95
   1   7   0   10.97    3.60
  -3  -7   0   19.13   13.11
   3  -7   0   25.57    4.84
  -3  -7   0   19.71    5.07
   3  -7   0   29.34   17.54
  -3  -7   0   20.24    3.25
   3  -7   0   27.72   12.98
  -3  -7   0   -1.79   16.02
  -3  -7   0   21.11    4.32
   3  -7   0   19.92    4.71
   3  -7   0   19.21    3.89
  -3  -7   0   31.47    5.48
  -3   7   0   29.51    4.87
   3   7   0   30.89    6.13
  -5  -7   0    4.44    1.45
  -5  -7   0    1.97    2.31
   5  -7   0    1.34    1.93
  -5  -7   0    7.49   13.12
   5  -7   0    1.84    2.00
  -5  -7   0    4.52    2.40
  -5  -7   0  -27.98   11.78
  -5  -7   0    5.06    2.97
   5  -7   0   14.04   11.98
   5   7   0    2.99    2.60
  -5   7   0    2.95    1.93
   7  -7   0   27.43   14.35
   7  -7   0    5.11    2.66
  -7  -7   0    0.75    2.12
  -7  -7   0  -13.94   16.94
  -7  -7   0    1.67    2.39
  -7  -7   0   15.22   16.71
  -7  -7   0    8.16    2.75
  -7  -7   0    6.28    1.48
   7  -7   0    7.17    2.59
  -7   7   0    9.90    2.98
   7   7   0   12.93    4.54
   9  -7   0    8.08    2.84
   9  -7   0   14.03   12.01
  -9  -7   0    4.21    2.98
   9  -7   0    9.14    3.02
  -9  -7   0    4.13    3.26
  -9  -7   0   25.28   19.99
  -9  -7   0    5.04    2.57
  -9  -7   0   18.44   16.70
   9   7   0   17.49    4.97
  -9   7   0   18.23    4.30
  11  -7   0   12.00    3.34
 -11  -7   0   11.84   14.71
  11  -7   0    7.51    2.74
 -11  -7   0   16.57    4.35
 -11  -7   0   14.98    5.22
 -11  -7   0   12.20    3.71
  11  -7   0   12.02   10.08
  11  -7   0   -0.11   13.15
 -11  -7   0   37.59   26.81
  11   7   0   10.62    4.43
 -11   7   0    7.25    3.14
  13  -7   0    7.16   12.25
 -13  -7   0   14.46   25.48
 -13  -7   0   16.93    5.00
  13  -7   0    8.61    2.97
 -13  -7   0   12.23   20.82
  13  -7   0    9.14    9.30
  13  -7   0   10.86    3.20
  13   7   0    5.34    4.07
  13   7   0    3.46    3.22
  15  -7   0   27.27   12.74
  15  -7   0   26.87    4.69
 -15  -7   0   33.99    7.75
  15  -7   0   35.40    6.39
 -15  -7   0   40.47   20.85
  15  -7   0   21.45   10.01
 -15  -7   0   43.24   23.22
  15   7   0   26.97    6.49
  15   7   0   33.28    8.11
  17  -7   0   17.73    6.08
 -17  -7   0   14.09   29.69
  17  -7   0   17.97    6.98
 -17  -7   0   57.76   29.82
  17  -7   0   18.92    3.77
 -17  -7   0   15.83    5.43
  17   7   0   15.38    5.74
  17   7   0   17.53    6.24
 -19  -7   0    5.74    4.16
  19  -7   0   12.53    2.91
 -19  -7   0  -46.14   26.24
 -19  -7   0   40.57   35.70
  19   7   0    6.21    4.23
  19   7   0    9.68    5.54
 -21  -7   0    6.54   30.60
 -21  -7   0   10.82    4.78
 -21  -7   0    3.49   37.56
  21  -7   0   10.85    2.94
  21   7   0    3.36    4.29
  21   7   0    8.63    5.17
 -23  -7   0  -29.92   36.67
  23  -7   0   18.16    3.31
 -23  -7   0   -3.89   41.61
 -23  -7   0   14.60    5.56
  23   7   0    8.09    4.68
  23   7   0   17.88    7.30
 -25  -7   0   13.31    4.82
  25  -7   0   12.04    2.69
 -25  -7   0   25.87   44.28
  25  -7   0   13.78    4.73
  25   7   0   18.66    6.82
  25   7   0   10.71    6.57
 -27  -7   0    1.44    3.03
  27  -7   0    3.68    2.09
 -27  -7   0   66.22   55.51
  27  -7   0    6.85    3.68
  27   7   0    5.89    5.22
  27   7   0    1.73    4.63
  29  -7   0    3.70    3.85
 -29  -7   0   -1.18    1.42
  29   7   0    3.73    5.24
  29   7   0    1.21    4.17
  31  -7   0    2.93    4.12
 -31  -7   0    0.15    1.88
  31   7   0    9.20    7.60
   0  -8   0  622.02   31.89
   0  -8   0  632.41   32.94
   0  -8   0  723.77   54.74
   0  -8   0  612.71   59.30
   0  -8   0  605.23   30.86
   0   8   0  595.30   31.28
   2  -8   0  532.42   28.12
  -2  -8   0  539.08   29.20
  -2  -8   0  552.85   57.57
  -2  -8   0  570.80   30.60
  -2  -8   0  552.73   26.24
   2  -8   0  557.62   29.10
  -2  -8   0  556.26   28.43
   2  -8   0  575.54   54.87
   2  -8   0  609.93   30.42
   2  -8   0  523.08   47.39
  -2  -8   0  640.09   53.54
  -2   8   0  589.49   28.88
   2   8   0  518.37   29.00
   4  -8   0  535.76   27.42
  -4  -8   0  545.71   30.05
   4  -8   0  523.80   27.88
   4  -8   0  485.79   49.51
   4  -8   0  569.87   29.06
  -4  -8   0  520.24   24.94
  -4  -8   0  519.73   28.48
   4  -8   0  570.25   47.05
  -4  -8   0  466.12   55.72
  -4  -8   0  575.14   53.05
   4   8   0  574.44   29.58
  -6  -8   0  599.95   28.79
   6  -8   0  679.76   51.50
   6  -8   0  633.71   32.74
   6  -8   0  684.82   32.68
  -6  -8   0  647.78   63.52
   6  -8   0  627.65   54.12
  -6  -8   0  644.02   58.14
  -6  -8   0  637.19   33.21
  -6  -8   0  658.20   35.01
   6  -8   0  652.04   31.82
   6   8   0  655.84   34.43
  -8  -8   0  557.22   59.53
   8  -8   0  497.99   26.80
  -8  -8   0  494.74   22.90
  -8  -8   0  539.11   28.17
  -8  -8   0  509.61   51.31
   8  -8   0  489.63   47.63
   8  -8   0  513.67   26.69
  -8  -8   0  524.27   29.65
   8  -8   0  509.61   41.97
   8   8   0  491.37   29.01
  10  -8   0  406.99   41.48
 -10  -8   0  343.05   22.85
 -10  -8   0  359.29   59.58
  10  -8   0  381.86   20.65
 -10  -8   0  385.07   45.43
  10  -8   0  374.68   20.57
  10   8   0  315.25   22.53
 -12  -8   0  189.46   37.40
  12  -8   0  270.29   28.12
 -12  -8   0  251.42   18.20
  12  -8   0  263.47   33.73
  12  -8   0  221.43   14.65
 -12  -8   0  220.88   49.03
  12  -8   0  240.61   15.14
  12   8   0  238.58   18.38
 -14  -8   0  298.64   61.28
  14  -8   0  313.39   18.00
 -14  -8   0  277.53   48.72
  14  -8   0  344.29   30.73
  14  -8   0  370.25   35.67
  14  -8   0  324.97   18.89
 -14  -8   0  331.70   22.15
  14   8   0  272.03   21.46
  16  -8   0  267.63   23.52
 -16  -8   0  228.27   18.40
  16  -8   0  262.48   27.98
 -16  -8   0  204.06   54.01
  16  -8   0  257.52   14.93
 -16  -8   0  338.86   54.86
  16   8   0  218.16   19.09
 -18  -8   0  105.16   11.44
  18  -8   0   97.47    8.05
 -18  -8   0  118.50   45.39
 -18  -8   0  105.93   42.56
  18   8   0  118.37   17.25
 -20  -8   0   54.26    9.78
 -20  -8   0    3.38   37.01
 -20  -8   0   93.54   47.92
  20  -8   0   70.38    6.40
  20   8   0   58.39   11.31
 -22  -8   0   -4.17   48.07
 -22  -8   0   61.45   10.70
  22  -8   0   57.78    5.62
 -22  -8   0    8.46   44.52
  22   8   0   42.63   10.39
 -24  -8   0  -11.77   52.25
 -24  -8   0   43.66    8.50
  24   8   0   14.86    6.53
  26  -8   0   36.78    5.03
 -26  -8   0   34.51    7.63
  26  -8   0   28.20    6.05
 -26  -8   0  -26.67   60.18
  26   8   0   24.39    8.77
 -28  -8   0   11.54    5.53
  28  -8   0   15.31    5.07
  28   8   0    2.99    5.73
  30  -8   0    2.81    3.43
 -30  -8   0    0.98    2.32
  30   8   0    0.48    5.22
   1  -9   0   13.08    4.34
   1  -9   0  -25.31   20.31
  -1  -9   0   19.29   23.35
   1  -9   0   14.53   17.42
  -1  -9   0   -1.45   17.24
  -1  -9   0    4.94    3.70
  -1  -9   0   13.57    4.28
   1  -9   0    4.84    3.59
   1   9   0   17.73    5.07
  -1   9   0   17.48    4.73
   3  -9   0   19.57   22.12
   3  -9   0   32.01    7.01
  -3  -9   0   26.50   21.26
   3  -9   0   30.55    6.01
  -3  -9   0   28.06    6.15
  -3  -9   0   46.65   26.94
   3  -9   0    3.16   16.10
  -3  -9   0   38.71    8.06
   3   9   0   38.89    7.48
  -5  -9   0   30.15    3.42
  -5  -9   0   10.09   27.61
  -5  -9   0   30.63    6.52
   5  -9   0   27.33    6.28
  -5  -9   0    9.07   19.37
   5  -9   0   28.63   17.11
   5  -9   0   51.33   22.94
   5  -9   0   33.16    6.25
  -5  -9   0   38.75    8.27
   5   9   0   26.69    6.65
   7  -9   0   48.40    7.54
  -7  -9   0   42.99   33.29
   7  -9   0   59.82   21.75
   7  -9   0   56.94    9.14
  -7  -9   0   41.56    8.69
  -7  -9   0   45.53    4.06
   7  -9   0   51.30    7.56
  -7  -9   0   51.95   28.36
   7   9   0   60.80    9.86
  -9  -9   0   53.62   27.21
   9  -9   0   62.32   25.96
  -9  -9   0   41.68   33.68
  -9  -9   0   45.16    9.32
   9  -9   0   27.56    5.96
   9  -9   0   44.66    7.55
   9   9   0   32.66    7.43
  11  -9   0   46.06    7.74
  11  -9   0   38.02   23.01
  11  -9   0   49.92    7.96
 -11  -9   0   43.11    9.77
 -11  -9   0   37.78   22.41
 -11  -9   0   95.98   39.93
  11   9   0   35.17    8.03
 -13  -9   0   29.99    8.20
  13  -9   0   48.63    7.42
  13  -9   0   23.29   16.18
 -13  -9   0   42.68   25.26
  13  -9   0   32.84   21.98
 -13  -9   0    9.17   35.63
  13   9   0   28.53    7.93
  15  -9   0   25.07    5.06
 -15  -9   0   15.65    6.23
 -15  -9   0    9.18   42.41
 -15  -9   0   23.70   33.58
  15  -9   0   17.56   15.12
  15  -9   0    9.39   19.95
  15   9   0   19.87    7.11
  17  -9   0   23.59   16.78
 -17  -9   0   47.85   45.18
 -17  -9   0   11.78   38.19
  17  -9   0   29.51   13.51
 -17  -9   0   26.48    7.49
  17  -9   0   24.20    5.20
  17   9   0   20.95    7.85
 -19  -9   0  -12.16   40.76
  19  -9   0   22.17    4.87
 -19  -9   0   69.45   50.63
 -19  -9   0   21.23    6.89
  19   9   0   26.33    8.21
 -21  -9   0   39.16   54.65
 -21  -9   0  -20.24   48.26
  21  -9   0    3.78    2.78
 -21  -9   0   -1.21    3.29
  21   9   0    3.53    5.01
 -23  -9   0  100.08   61.37
 -23  -9   0   18.74    6.42
  23  -9   0   18.94    4.46
  23   9   0   11.46    5.97
  25  -9   0    9.18    3.44
 -25  -9   0    3.70    4.45
 -25  -9   0  -51.95   68.94
  25   9   0    7.74    5.89
  27  -9   0    2.73    3.46
 -27  -9   0    0.90    3.51
  27   9   0    2.80    5.89
  29  -9   0    2.02    3.07
 -29  -9   0    0.50    3.70
  29   9   0    0.75    4.56
   0 -10   0  560.02   57.69
   0 -10   0  417.82   63.34
   0 -10   0  542.06   30.66
   0  10   0  490.41   27.99
   2 -10   0  346.34   57.96
  -2 -10   0  466.14   52.98
  -2 -10   0  419.33   66.06
  -2 -10   0  356.25   24.28
   2 -10   0  378.20   24.98
   2 -10   0  355.68   23.68
   2  10   0  379.26   23.01
   4 -10   0  388.30   57.77
  -4 -10   0  391.81   64.01
   4 -10   0  305.93   20.49
  -4 -10   0  405.13   57.21
   4 -10   0  346.62   22.27
  -4 -10   0  326.94   22.90
   4  10   0  328.65   21.51
  -6 -10   0  426.40   61.72
  -6 -10   0  420.16   26.27
   6 -10   0  358.43   23.44
  -6 -10   0  341.92   19.26
   6 -10   0  383.56   46.05
  -6 -10   0  442.53   69.66
   6 -10   0  368.44   24.25
   6 -10   0  475.64   55.21
   6  10   0  408.90   24.74
   8 -10   0  352.21   43.44
   8 -10   0  390.54   54.86
   8 -10   0  327.19   21.06
  -8 -10   0  340.15   64.04
  -8 -10   0  419.92   53.17
  -8 -10   0  303.79   16.02
  -8 -10   0  313.75   22.92
   8  10   0  336.13   22.57
  10 -10   0  210.51   42.95
  10 -10   0  182.27   33.08
  10 -10   0  217.56   16.28
 -10 -10   0  248.95   52.25
 -10 -10   0  259.71   60.62
 -10 -10   0  220.02   18.54
  10  10   0  265.42   19.42
  12 -10   0  172.21   37.77
 -12 -10   0  245.22   65.90
  12 -10   0  215.62   15.25
 -12 -10   0  180.59   49.69
 -12 -10   0  181.20   17.15
  12 -10   0  207.05   33.06
  12  10   0  195.60   17.32
 -14 -10   0  222.11   52.10
  14 -10   0  145.13   27.34
  14 -10   0  157.44   12.44
 -14 -10   0  139.90   55.54
 -14 -10   0  168.64   16.14
  14 -10   0  168.61   37.05
  14  10   0  149.97   15.81
  16 -10   0   83.87   22.95
  16 -10   0   98.43    9.40
  16 -10   0   99.37   31.27
 -16 -10   0  -19.45   43.30
 -16 -10   0   98.91   14.79
 -16 -10   0  123.51   61.84
  16  10   0   73.93   13.48
  18 -10   0   35.05   15.32
 -18 -10   0   -4.53   56.76
 -18 -10   0   -5.30   51.13
  18 -10   0   68.63    9.09
 -18 -10   0   58.96   11.11
  18 -10   0   61.52   20.80
  18  10   0   49.90   11.16
 -20 -10   0   37.94    9.35
 -20 -10   0    3.44   57.43
 -20 -10   0  -26.78   65.50
  20  10   0   35.45    9.58
 -22 -10   0   -4.54   52.59
  22 -10   0   38.94    6.64
 -22 -10   0   46.14   10.27
  22  10   0   36.90    9.88
 -24 -10   0   20.93    7.46
  24 -10   0   23.65    5.16
  24  10   0    8.16    6.23
  26 -10   0   22.11    6.02
 -26 -10   0    8.98    5.72
  26  10   0   17.45    7.93
   1 -11   0   13.32    5.14
   1 -11   0   -0.09   24.49
  -1 -11   0    8.08    4.83
   1 -11   0   31.51   33.44
  -1 -11   0   21.12   38.48
  -1 -11   0   -6.46   27.05
   1  11   0   14.88    5.08
  -3 -11   0   15.52   31.40
  -3 -11   0    7.03    4.97
   3 -11   0    4.97    4.35
   3 -11   0  -12.58   22.76
   3 -11   0    2.97   29.51
  -3 -11   0   22.66   37.76
   3  11   0    2.66    3.33
   5 -11   0   19.09   22.83
   5 -11   0   -7.99   34.15
  -5 -11   0    3.22    4.18
  -5 -11   0   13.31   40.42
   5 -11   0    1.88    3.34
   5  11   0    5.44    3.89
  -7 -11   0   14.25   44.03
   7 -11   0  -14.01   28.75
  -7 -11   0    2.80    4.38
   7 -11   0    6.12    3.88
   7 -11   0  -23.63   25.64
   7  11   0    3.19    3.89
  -9 -11   0    8.15    5.39
   9 -11   0  -42.16   34.03
  -9 -11   0   16.63   46.71
   9 -11   0   12.25    4.65
  -9 -11   0   13.79   37.08
   9 -11   0   -7.90   23.70
   9  11   0    3.56    4.03
  11 -11   0  -32.75   31.61
  11 -11   0   15.05    5.47
 -11 -11   0    3.47    4.72
 -11 -11   0   27.47   35.27
 -11 -11   0   24.86   37.23
  11 -11   0    4.36   25.61
  11  11   0    5.44    4.39
  13 -11   0   13.86   33.26
 -13 -11   0   -6.45   45.19
  13 -11   0    5.67    4.15
 -13 -11   0    4.13    4.49
 -13 -11   0   -8.02   55.27
  13  11   0    9.55    5.44
 -15 -11   0    3.76    4.90
 -15 -11   0  -83.46   59.97
  15 -11   0  -16.00   33.99
 -15 -11   0   59.73   54.96
  15 -11   0    8.92    3.99
  15  11   0    1.26    3.53
  17 -11   0    4.31    3.96
 -17 -11   0   -3.12   59.87
 -17 -11   0   15.97   54.07
 -17 -11   0   11.08    5.12
  17 -11   0   12.58   30.19
  17  11   0    9.33    5.93
 -19 -11   0   54.10   78.23
 -19 -11   0   69.50   68.85
 -21 -11   0    5.20    5.16
 -21 -11   0  -65.02   79.76
  21 -11   0    4.08    3.62
  21  11   0    0.13    4.44
  23 -11   0    4.23    3.62
 -23 -11   0    4.61    5.78
  23  11   0   10.29    6.96
  25  11   0    5.64    6.41
   0 -12   0  221.62   19.32
   0 -12   0  227.17   56.30
   0 -12   0  266.09   63.89
  -2 -12   0  126.10   52.64
   2 -12   0  166.24   46.73
   2 -12   0  196.56   17.41
  -2 -12   0  163.48   16.78
   2 -12   0  181.54   56.92
  -2 -12   0  185.05   50.29
   2  12   0  207.45   15.92
  -4 -12   0  113.15   47.60
   4 -12   0  135.82   13.82
   4 -12   0  230.30   54.55
  -4 -12   0   76.41   54.50
   4 -12   0  158.34   43.19
  -4 -12   0  131.46   14.61
   4  12   0  144.29   13.18
   6 -12   0  130.74   13.12
   6 -12   0  102.75   50.56
  -6 -12   0   78.66   58.19
  -6 -12   0  135.60   14.77
  -6 -12   0  134.92   52.37
   6  12   0  124.87   12.85
   8 -12   0  131.14   13.12
  -8 -12   0  104.24   16.11
   8 -12   0  100.35   49.57
  -8 -12   0  142.75   54.35
  -8 -12   0   88.03   65.65
   8  12   0  135.38   13.29
  10 -12   0   57.21   45.27
 -10 -12   0   36.77   53.81
 -10 -12   0    3.27   49.12
 -10 -12   0  113.54   16.98
  10 -12   0  105.08   14.14
  10  12   0   69.70   12.21
  12 -12   0   68.70   11.02
 -12 -12   0   67.05   12.95
  12 -12   0  -29.36   43.77
 -12 -12   0   62.93   59.69
 -12 -12   0   42.39   69.95
  12  12   0   60.41   11.47
 -14 -12   0   47.18   11.08
  14 -12   0   59.37   10.04
 -14 -12   0  -21.41   49.21
  14 -12   0   92.40   50.66
 -14 -12   0   33.30   78.59
  14  12   0   42.68    9.67
 -16 -12   0   -3.46   83.52
 -16 -12   0   36.40   70.12
 -16 -12   0   43.16   10.40
  16 -12   0   34.69   44.73
  16 -12   0   37.94    8.02
  16  12   0   43.92    9.90
 -18 -12   0   50.15   96.41
 -18 -12   0   44.24    9.87
  18 -12   0   31.85    7.24
 -18 -12   0  102.33   89.49
  18  12   0   24.24    8.15
 -20 -12   0   24.28    8.38
  20 -12   0   35.16    7.61
  20  12   0   38.42   10.72
 -22 -12   0   10.87    7.44
  22 -12   0    8.52    5.54
  22  12   0   10.56    7.19
  -1 -13   0   12.67    6.77
   1 -13   0  -39.72   50.87
  -1 -13   0   76.92   60.16
   1 -13   0   20.40    7.96
  -3 -13   0  -64.46   58.28
   3 -13   0    7.36    5.53
  -3 -13   0    8.55    6.35
   3 -13   0   45.22   62.41
   3  13   0    4.62    4.07
   5 -13   0   32.66   54.70
  -5 -13   0    3.96    4.91
   5 -13   0    7.30    5.37
  -5 -13   0    7.20   65.69
   5  13   0    6.95    4.65
  -7 -13   0  -98.39   55.48
   7 -13   0    8.35    5.55
  -7 -13   0  -18.60   55.58
   7 -13   0   33.77   51.21
  -7 -13   0   17.26    6.82
   7  13   0   13.90    5.41
   9 -13   0   49.49   58.10
  -9 -13   0   13.78   63.31
  -9 -13   0  102.09   80.67
  11 -13   0  -46.91   55.93
 -11 -13   0   19.82   85.19
 -11 -13   0    6.28    5.69
 -11 -13   0   12.55   70.17
  11 -13   0    5.39    4.62
  11  13   0    5.10    4.50
  13 -13   0   61.38   63.40
 -13 -13   0   80.03   74.52
 -13 -13   0   -8.64   60.95
 -15 -13   0    8.24    6.59
  15 -13   0    2.86   63.59
  15 -13   0    1.09    3.89
 -15 -13   0  -55.22  101.78
 -15 -13   0  -19.08   94.17
  15  13   0   -0.59    3.42
 -17 -13   0   95.11  137.52
   0 -14   0   63.58   12.90
  -2 -14   0   67.92   13.01
   2 -14   0  102.08   16.04
  -4 -14   0   63.35   13.33
   4 -14   0   35.93   10.12
   4  14   0   79.18   12.24
   6 -14   0   52.93   11.68
  -6 -14   0   53.81   12.28
   6  14   0   53.06    9.63
  -8 -14   0   75.10   14.15
   8 -14   0   66.04   12.77
   8  14   0   72.35   12.26
 -10 -14   0   37.73    9.92
  10 -14   0   51.81   11.16
  10  14   0   50.95   10.19
 -12 -14   0   47.60   11.81
  12 -14   0   44.75   10.54
  12  14   0   33.28    8.57
  14 -14   0   43.05    9.83
 -14 -14   0   22.13    8.03
  14  14   0   25.21    8.20
  -1 -15   0    1.64    4.37
   1 -15   0    2.98    5.69
  -3 -15   0    7.69    6.50
   3 -15   0   -1.55    4.14
   5 -15   0   -3.19    3.61
  -5 -15   0    1.29    5.17
  36   0  -1    1.40    4.47
 -34   0   1  -13.91   42.29
  34   0  -1    5.38    3.58
  34   0  -1    0.01    3.56
  32   0  -1   12.83    4.43
  32   0  -1   12.75    6.59
 -32   0   1   -0.51   36.85
  30   0  -1   18.15    4.84
  30   0  -1   14.94    6.37
 -30   0   1    7.17   31.10
 -28   0   1   -1.03   26.19
 -28   0   1    2.13   25.40
  28   0  -1    6.28    4.51
  28   0  -1    8.69    3.30
  26   0  -1    6.04    2.67
 -26   0   1   14.51   23.33
 -26   0   1    0.59   20.92
  26   0  -1    9.38    4.67
  24   0  -1    3.21    3.66
 -24   0   1   -0.22   20.52
 -24   0   1   10.94   18.60
  24   0  -1   14.51    3.50
 -22   0   1    2.01   15.27
  22   0  -1   15.22    4.89
 -22   0   1  -12.54   16.94
  22   0  -1   15.58    3.38
  20   0  -1    4.89    3.13
  20   0  -1   15.16    2.79
 -20   0   1   10.06   13.08
  20   0  -1    7.24    2.29
  18   0  -1   73.51    5.71
  18   0  -1   80.95    7.77
 -18   0   1   81.03   19.34
  18   0  -1   98.05   18.21
  18   0  -1   78.83    5.70
  16   0  -1    2.01    1.99
  16   0  -1    4.16    1.64
  16   0  -1    2.90    7.35
  16   0  -1    1.43    1.29
 -16   0   1    4.09    8.99
 -14   0   1   67.64    3.74
 -14   0   1   69.22   14.58
 -14   0   1   67.58    3.57
  14   0  -1   58.35    4.39
  14   0  -1   57.93    4.53
  14   0  -1   59.29    5.74
  14   0  -1   57.25   13.68
  12   0  -1  309.35   24.45
  12   0  -1  317.47   14.68
 -12   0   1  309.38   14.36
  12   0  -1  298.69   14.86
 -12   0   1  307.99   13.97
  12   0  -1  329.23   16.41
 -12   0   1  333.40   26.60
  10   0  -1   67.22    4.56
  10   0  -1   72.22    4.40
  10   0  -1   77.80    5.50
 -10   0   1   56.08   11.26
  10   0  -1   75.37   12.11
 -10   0   1   70.22    4.48
 -10   0   1   71.87    4.14
   8   0  -1  671.01   38.43
  -8   0   1  693.68   39.10
  -6   0   1  105.27    5.29
   6   0  -1  103.77    5.31
   6   0  -1   99.47   10.65
  -6   0   1   93.06   10.90
   4   0  -1    4.39    2.98
  -4   0   1    8.18    1.23
   4   0  -1    7.57    1.19
   2   0  -1  476.72   25.24
  -2   0   1  475.07   25.38
   0   0  -1  191.49   14.09
   2   0   1 1081.28   48.87
  -2   0  -1 1067.17   48.79
   4   0   1  526.86   27.38
  -4   0  -1  542.44   27.42
  -6   0  -1   19.10    1.74
   6   0   1   17.15    5.24
  -6   0  -1   18.62    2.00
   6   0   1   18.83    2.16
  -6   0  -1   22.22    5.80
   6   0   1   17.91    1.53
   6   0   1   18.20    1.70
   6   0   1   17.53    1.37
  -8   0  -1  576.32   30.97
  -8   0  -1  587.31   32.79
 -10   0  -1  987.67   49.35
 -10   0  -1  969.19   51.40
  12   0   1  106.09    7.56
 -12   0  -1   96.88   15.27
  12   0   1  101.70    6.07
  12   0   1   95.99    5.47
 -12   0  -1   92.82   12.22
  12   0   1   96.82    6.10
 -12   0  -1  110.44    6.31
 -14   0  -1   17.33    8.23
 -14   0  -1   16.82    9.43
  14   0   1   20.91    2.48
  14   0   1   24.20    4.66
  14   0   1   20.85    2.30
  14   0   1   28.16    3.75
 -14   0  -1   27.52    3.74
  16   0   1  115.42    7.57
  16   0   1  129.78    7.37
 -16   0  -1  113.15   19.12
  16   0   1  145.63   10.19
 -16   0  -1  138.34   18.98
 -16   0  -1  130.67    8.06
  16   0   1  130.78    8.25
  18   0   1  169.50   10.23
 -18   0  -1  160.93   22.35
  18   0   1  134.79    8.97
  18   0   1  142.64   11.41
 -18   0  -1  172.21    9.90
 -18   0  -1  144.92   22.94
  18   0   1  174.15    9.18
 -20   0  -1  227.64   26.65
  20   0   1  213.63   11.38
  20   0   1  186.61   11.25
  20   0   1  197.33   14.46
 -20   0  -1  204.48   23.88
  22   0   1  103.51   10.40
  22   0   1   99.45    7.31
 -22   0  -1  115.27   21.47
 -22   0  -1   94.58   20.81
  24   0   1   42.61    5.73
  24   0   1   37.81    7.87
 -24   0  -1   24.40   16.14
 -24   0  -1   34.45   19.22
  26   0   1    6.93    4.24
 -26   0  -1   15.34   18.65
  26   0   1   22.74    4.24
 -26   0  -1   27.13   17.58
 -28   0  -1   -4.77   20.17
  28   0   1   24.86    5.14
  28   0   1   21.51    7.05
 -28   0  -1    9.32   20.51
 -30   0  -1   11.84   23.00
  30   0   1   21.81    5.01
  30   0   1   10.25    6.02
  32   0   1   -0.35    3.45
 -32   0  -1   20.32   24.53
  32   0   1    4.63    3.70
  34   0   1    6.73    4.35
  34   0   1    6.45    5.66
  35  -1  -1    4.68    3.74
  35  -1  -1   -0.94    3.38
  35   1  -1    4.57    5.40
  35   1  -1   -0.50    2.98
  33  -1  -1   23.86    7.63
 -33  -1   1   19.26   49.77
  33  -1  -1   13.17    4.33
  33   1  -1    8.21    5.75
  33   1  -1   22.40    5.64
  31  -1  -1   16.13    5.80
  31  -1  -1   19.47    4.67
 -31  -1   1    9.77   37.46
  31   1  -1   17.00    5.06
 -31   1   1  -12.64   27.00
  31   1  -1    6.59    5.24
 -29  -1   1   47.13   31.72
  29  -1  -1   37.33    8.97
  29  -1  -1   43.66    6.23
  29   1  -1   29.62    8.22
 -29   1   1    1.58   25.01
 -29   1   1   -0.24   25.40
  29   1  -1   37.87    6.51
 -27  -1   1   72.86   30.12
  27  -1  -1   30.39    4.96
  27  -1  -1   33.26    7.39
 -27  -1   1   81.33   31.15
 -27   1   1   50.01   24.15
  27   1  -1   41.19    6.51
 -27   1   1   43.48   23.64
  27   1  -1   44.13    9.83
  25  -1  -1   40.72    4.54
 -25  -1   1   25.42   23.29
 -25  -1   1   42.47   26.57
  25  -1  -1   42.36    8.49
  25   1  -1   48.84    6.73
 -25   1   1   14.36   20.30
  25   1  -1   41.90    4.27
 -25   1   1   66.71   21.74
  25   1  -1   43.07    8.76
  23  -1  -1  130.70   11.73
 -23  -1   1  210.69   41.51
  23  -1  -1  137.67    8.77
 -23  -1   1  154.68   31.05
 -23   1   1  157.61   25.33
 -23   1   1  123.66   26.90
  23   1  -1  123.38    8.26
  23   1  -1  146.83    9.87
  23   1  -1  144.48   12.55
  21  -1  -1   96.20    6.67
 -21  -1   1   79.32   22.93
  21  -1  -1   96.95    9.20
 -21  -1   1  106.08   29.50
  21   1  -1   93.77    9.68
 -21   1   1  101.33   21.52
  21   1  -1  103.21    6.77
  21   1  -1  101.45    7.61
  19  -1  -1  238.98   15.53
 -19  -1   1  251.26   11.59
 -19  -1   1  218.05   32.43
  19  -1  -1  222.79   24.30
 -19  -1   1  255.38   11.84
  19  -1  -1  256.07   13.02
 -19   1   1  299.35   28.71
  19   1  -1  255.41   16.51
  19   1  -1  268.76   13.12
  19   1  -1  249.35   13.81
  17  -1  -1  731.69   37.57
  17  -1  -1  773.65   36.26
 -17  -1   1  784.13   35.09
  17  -1  -1  823.04   48.94
 -17  -1   1  812.79   34.57
 -17  -1   1  787.58   54.54
  17   1  -1  805.94   35.23
 -17   1   1  786.40   49.88
  17   1  -1  837.83   36.20
  17   1  -1  849.07   39.11
  17   1  -1  889.77   55.49
  15  -1  -1  483.10   21.73
  15  -1  -1  467.64   32.70
  15  -1  -1  492.57   24.17
  15  -1  -1  448.34   22.72
 -15  -1   1  490.58   22.53
 -15  -1   1  477.06   21.60
 -15  -1   1  412.02   36.14
  15   1  -1  489.56   24.82
  15   1  -1  498.52   22.66
  15   1  -1  503.28   37.65
  15   1  -1  506.49   21.97
 -15   1   1  494.13   34.42
 -13  -1   1  577.30   26.95
  13  -1  -1  559.83   26.84
 -13  -1   1  629.88   42.36
  13  -1  -1  592.89   25.89
 -13  -1   1  613.95   26.07
  13  -1  -1  570.34   36.12
  13   1  -1  580.24   25.93
 -13   1   1  558.25   37.12
  13   1  -1  555.68   40.22
  13   1  -1  608.84   28.61
  13   1  -1  637.12   26.81
 -11  -1   1 1276.61   68.88
  11  -1  -1 1308.27   63.19
 -11   1   1 1198.48   63.27
  11   1  -1 1208.35   66.99
   9  -1  -1 2253.08  102.55
  -9   1   1 2286.70  103.74
   9   1  -1 2234.67  107.02
   7  -1  -1 4857.92  210.25
  -7   1   1 5081.96  211.57
   7   1  -1 4878.76  214.27
   5  -1  -1 1180.94   54.20
  -5  -1   1 1205.85   57.49
   5   1  -1 1107.69   56.41
  -5   1   1 1012.09   53.73
   3  -1  -1 8262.76  387.93
  -3  -1   1 7033.32  432.36
  -3   1   1 8498.76  389.70
   3   1  -1 7778.81  436.04
   1  -1  -1 2550.56  111.58
  -1  -1   1 2494.57  110.60
  -1   1   1 2684.18  112.06
   1   1  -1 2449.50  110.32
  -1  -1  -1 3032.33  129.91
   1  -1   1 2920.01  125.99
   1   1   1 3051.79  129.91
  -1   1  -1 2902.71  125.92
   3  -1   1 5632.62  231.13
  -3  -1  -1 5641.29  238.49
  -3   1  -1 5647.05  230.97
   3   1   1 5507.59  238.24
   5  -1   1 2492.64  102.73
  -5  -1  -1 2488.07  112.90
   5   1   1 2425.15  113.37
  -5   1  -1 2513.77  102.61
  -7  -1  -1 4145.21  176.53
  -7   1  -1 3447.64  163.79
   7   1   1 4220.21  178.56
  -7   1  -1 4135.09  163.72
  -9  -1  -1 3067.47  138.51
  -9  -1  -1 3030.81  142.12
  -9   1  -1 3143.64  130.43
  -9   1  -1 3086.62  129.53
 -11  -1  -1 1159.12   60.68
 -11  -1  -1 1055.64   63.02
 -11   1  -1 1191.66   53.70
 -11   1  -1 1136.19   52.33
  13  -1   1  431.83   20.83
 -13  -1  -1  376.60   30.06
  13  -1   1  428.81   18.50
 -13  -1  -1  433.71   20.88
 -13  -1  -1  430.05   18.92
 -13  -1  -1  415.46   17.91
 -13  -1  -1  431.62   34.11
  13  -1   1  393.66   19.58
  13  -1   1  428.50   17.90
 -13  -1  -1  424.03   18.29
  13   1   1  388.56   18.69
  13   1   1  405.01   19.43
 -13   1  -1  435.90   24.52
 -13   1  -1  394.91   25.11
  13   1   1  390.52   20.20
  13   1   1  431.53   21.93
 -13   1  -1  431.12   20.05
 -15  -1  -1  653.38   48.38
  15  -1   1  740.39   33.58
 -15  -1  -1  776.92   33.62
  15  -1   1  723.06   30.08
 -15  -1  -1  671.68   45.21
  15  -1   1  703.05   30.88
  15  -1   1  618.73   31.57
  15   1   1  699.51   32.78
  15   1   1  697.72   31.69
  15   1   1  687.68   30.89
 -15   1  -1  780.73   38.85
  15   1   1  738.82   34.76
 -15   1  -1  699.59   39.33
 -15   1  -1  696.38   32.19
  17  -1   1 1043.22   45.70
  17  -1   1 1017.99   42.71
 -17  -1  -1 1030.08   60.52
  17  -1   1  948.38   43.38
 -17  -1  -1  959.07   62.83
  17   1   1 1019.70   43.36
 -17   1  -1  965.61   52.36
  17   1   1  985.53   42.37
  17   1   1  836.89   45.64
  17   1   1  937.71   44.36
 -17   1  -1 1036.66   51.35
 -19  -1  -1  432.28   37.64
  19  -1   1  429.31   19.64
 -19  -1  -1  424.33   38.96
  19  -1   1  440.81   23.65
  19   1   1  431.80   21.28
 -19   1  -1  367.88   29.63
  19   1   1  460.12   24.98
 -19   1  -1  452.73   29.96
  19   1   1  421.78   20.19
 -19   1  -1  428.43   21.75
 -21  -1  -1  144.02   27.62
 -21  -1  -1  147.87   27.25
  21  -1   1  141.38    8.44
  21  -1   1  160.79   12.28
  21   1   1  158.41   12.96
  21   1   1  141.40    8.75
  21   1   1  162.09   10.19
 -21   1  -1  137.46   18.87
 -21   1  -1  143.03   20.73
  23  -1   1  210.46   11.39
 -23  -1  -1  240.90   34.61
 -23  -1  -1  159.87   31.12
  23  -1   1  215.64   15.43
  23   1   1  197.29   11.32
 -23   1  -1  215.76   24.07
  23   1   1  218.95   12.98
 -23   1  -1  177.03   21.28
  23   1   1  193.40   15.78
  25  -1   1   50.43    4.87
 -25  -1  -1   45.48   20.60
 -25  -1  -1   51.39   23.16
  25  -1   1   50.03    9.14
  25   1   1   53.74    7.08
 -25   1  -1   47.18   15.23
 -25   1  -1   40.57   14.17
  25   1   1   55.99   10.48
  27  -1   1   56.14    5.39
 -27  -1  -1   39.26   25.78
 -27  -1  -1   46.26   27.31
  27  -1   1   45.10    9.51
 -27   1  -1   27.69   14.41
  27   1   1   54.45   10.25
  27   1   1   62.90    6.80
 -27   1  -1   51.15   14.53
  29  -1   1   56.99   11.02
 -29  -1  -1   38.66   29.15
  29  -1   1   52.77    6.99
  29   1   1   43.92    7.31
  29   1   1   49.83   11.20
  31  -1   1   14.38    4.14
 -31  -1  -1   -9.38   32.35
  31  -1   1   20.37    6.64
  31   1   1   20.12    5.47
  31   1   1   16.38    6.51
  33  -1   1   14.90    4.68
 -33  -1  -1   20.43   39.81
  33  -1   1   13.47    5.63
  33   1   1    5.61    4.08
  33   1   1    7.88    5.85
  35  -1   1    3.44    5.12
  35  -1   1    3.10    3.57
  35   1   1    1.77    4.72
  35   1   1    1.85    3.93
  34  -2  -1    2.62    3.00
  34  -2  -1    7.18    5.30
  34   2  -1    3.72    5.22
  34   2  -1    0.86    3.65
  32  -2  -1   15.00    4.23
  32  -2  -1    4.40    4.45
 -32  -2   1   36.46   47.67
  32   2  -1   12.39    4.77
  32   2  -1   11.99    5.79
  30  -2  -1   12.31    3.35
 -30  -2   1  -19.23   39.75
  30  -2  -1    2.12    3.64
  30   2  -1   13.03    4.34
  30   2  -1    4.07    4.78
 -30   2   1   26.74   15.42
 -28  -2   1   -9.25   31.39
 -28  -2   1    0.35   33.20
  28  -2  -1    5.38    3.92
  28  -2  -1    8.06    2.68
  28   2  -1   17.34    6.29
 -28   2   1   20.92   17.84
 -28   2   1   10.58   18.08
  28   2  -1   12.53    4.20
  28   2  -1   11.92    2.44
  26  -2  -1   16.20    3.35
  26  -2  -1   16.78    5.37
 -26  -2   1   24.49   27.79
 -26  -2   1  -12.14   26.93
  26   2  -1   14.27    2.59
 -26   2   1   22.22   18.46
  26   2  -1   15.59    4.56
 -26   2   1    6.79   15.64
  26   2  -1    7.61    4.58
  24  -2  -1   36.52    7.22
 -24  -2   1   20.15   29.55
 -24  -2   1   44.31   22.81
  24  -2  -1   41.12    4.24
  24   2  -1   36.06    7.96
  24   2  -1   47.84    6.77
 -24   2   1   62.73   19.47
  24   2  -1   41.93    3.67
 -24   2   1   33.80   16.41
 -22  -2   1   39.29    3.21
 -22  -2   1   37.74    3.50
  22  -2  -1   35.38    3.83
  22  -2  -1   31.30    6.52
 -22  -2   1   35.47   21.51
 -22  -2   1   67.05   28.17
 -22   2   1   35.19   15.17
  22   2  -1   35.29    5.87
  22   2  -1   34.29    7.45
  22   2  -1   35.54    3.29
 -20  -2   1   26.08    3.96
  20  -2  -1   23.35    3.42
 -20  -2   1   39.53   19.19
  20  -2  -1   24.04    5.12
 -20  -2   1    4.61   18.91
 -20  -2   1   24.97    3.38
  20  -2  -1   23.02   10.55
  20   2  -1   29.17    2.82
  20   2  -1   33.95    5.20
  20   2  -1   30.15    6.26
 -20   2   1   36.09   13.64
 -18  -2   1  118.00    7.47
  18  -2  -1  130.74    7.45
 -18  -2   1   96.07   26.57
  18  -2  -1  131.34    9.88
 -18  -2   1  146.27   27.92
 -18  -2   1  132.07    8.71
  18  -2  -1  126.78   17.88
 -18   2   1  144.47   20.87
  18   2  -1  138.63   11.18
  18   2  -1  129.44    7.11
  18   2  -1  123.47    8.80
  16  -2  -1   18.98    3.70
 -16  -2   1   17.32   11.89
 -16  -2   1   17.88    3.73
  16  -2  -1   22.66    2.93
 -16  -2   1   17.96    3.00
  16  -2  -1   24.88    9.28
  16   2  -1    5.75    3.10
 -16   2   1   14.61    9.04
  16   2  -1   15.28    3.33
  16   2  -1   17.15    2.32
  14  -2  -1   26.75    2.51
  14  -2  -1   10.87    7.45
 -14  -2   1   38.92    5.31
 -14  -2   1   21.01   12.36
  14   2  -1   11.51    9.58
  14   2  -1   18.43    1.90
  14   2  -1   13.31    3.73
 -14   2   1   17.15    8.53
  14   2  -1   16.47    3.24
  12  -2  -1  321.69   23.01
 -12  -2   1  315.11   16.77
  12  -2  -1  304.48   14.66
 -12  -2   1  301.26   15.27
  12  -2  -1  308.38   16.06
  12   2  -1  324.49   14.25
  12   2  -1  339.91   16.12
  12   2  -1  358.56   17.96
  12   2  -1  309.97   28.91
  10  -2  -1   72.24    5.60
 -10  -2   1   80.96    6.09
 -10  -2   1   79.15    6.40
  10  -2  -1   89.09    5.01
 -10  -2   1   75.20    5.29
 -10  -2   1   53.80   13.54
  10  -2  -1   69.54   10.97
  10   2  -1   87.24    5.81
  10   2  -1   92.68    6.90
  10   2  -1   73.54   15.05
 -10   2   1   97.80   14.31
  10   2  -1   98.90    4.53
   8  -2  -1   54.62    9.65
  -8  -2   1   67.13   13.50
  -8  -2   1   57.44    4.43
   8  -2  -1   49.96    3.44
  -8  -2   1   50.82    3.82
   8  -2  -1   55.91    4.28
  -8  -2   1   56.30    4.90
   8   2  -1   35.49   10.32
  -8   2   1   38.11    8.66
  -6  -2   1  220.06   10.90
  -6  -2   1  214.72   19.96
   6  -2  -1  209.79   16.80
  -6  -2   1  202.12   10.36
   6  -2  -1  210.93   10.12
   6  -2  -1  208.66   10.73
   6   2  -1  215.80   11.24
  -6   2   1  201.75   16.67
   6   2  -1  200.41   18.87
  -6   2   1  213.41    9.46
   6   2  -1  215.08   10.68
  -4  -2   1  334.67   24.75
  -4  -2   1  337.92   15.78
   4  -2  -1  301.81   22.24
  -4  -2   1  348.86   16.00
   4   2  -1  407.06   26.27
  -4   2   1  380.72   23.90
  -2  -2   1   30.68    2.39
  -2  -2   1   31.51    2.36
   2  -2  -1   30.31    6.89
  -2  -2   1   42.69    8.54
   2  -2  -1   31.95    2.64
   2   2  -1   15.24    6.39
   2   2  -1   19.76    2.16
   2   2  -1   21.66    1.77
   2   2  -1   22.77    2.30
  -2   2   1   18.84    2.57
   0  -2   1  713.16   37.62
   0  -2  -1  779.87   41.33
   0   2   1  720.21   40.91
   0   2  -1  669.04   37.26
   2  -2   1  536.52   29.01
  -2  -2  -1  506.89   34.14
  -2   2  -1  586.42   29.47
   2   2   1  595.62   35.92
  -4  -2  -1   60.17   12.16
  -4  -2  -1   83.56    5.80
   4  -2   1   73.06    4.71
  -4  -2  -1   76.58    5.32
  -4  -2  -1   74.28    4.98
   4  -2   1   74.25    7.87
   4  -2   1   78.59    6.90
  -4   2  -1   81.47    4.91
   4   2   1  105.03   15.89
   4   2   1   80.77    5.87
   4   2   1   90.56    5.67
  -6  -2  -1  347.40   16.99
  -6  -2  -1  354.69   16.42
   6  -2   1  352.18   16.39
  -6  -2  -1  369.65   17.64
  -6  -2  -1  347.55   28.04
   6  -2   1  356.42   16.34
   6  -2   1  357.20   16.13
  -6   2  -1  346.67   16.51
   6   2   1  355.55   16.93
   6   2   1  347.13   17.22
   6   2   1  329.64   28.71
   6   2   1  343.48   17.82
   8  -2   1   90.30    5.68
  -8  -2  -1   88.88    5.39
  -8  -2  -1   99.25    6.25
  -8  -2  -1   76.40   15.84
  -8  -2  -1   94.60    4.21
  -8  -2  -1  100.99    6.82
   8   2   1   93.28   17.86
   8   2   1   69.40    6.38
  -8   2  -1   76.83    5.59
   8   2   1   68.81    5.57
 -10  -2  -1  185.79   23.10
 -10  -2  -1  197.35   11.52
  10  -2   1  176.59   10.31
 -10  -2  -1  186.58   10.67
 -10  -2  -1  186.50    9.81
 -10  -2  -1  197.67    8.81
 -10   2  -1  212.92   10.95
  10   2   1  196.42   12.20
  10   2   1  210.57   10.99
  10   2   1  194.15   11.36
 -12  -2  -1   36.09    3.11
 -12  -2  -1   37.74    4.33
 -12  -2  -1   40.43    3.90
 -12  -2  -1   47.39   13.08
 -12  -2  -1   38.74    2.59
  12  -2   1   40.64    3.81
 -12  -2  -1   42.59   14.17
  12  -2   1   40.66    3.92
  12   2   1   34.67    5.31
  12   2   1   27.83    4.20
  12   2   1   30.22    5.60
 -14  -2  -1   31.32    4.14
 -14  -2  -1   33.18    5.10
 -14  -2  -1   32.39    2.93
  14  -2   1   35.02    3.73
  14  -2   1   40.35    4.26
 -14  -2  -1   20.87   12.20
 -14  -2  -1   30.81    2.59
 -14  -2  -1   35.63   15.29
  14   2   1   41.38    5.79
  14   2   1   38.67    5.09
 -14   2  -1   39.80    4.22
  14   2   1   35.16    5.94
  16  -2   1   32.88    2.18
  16  -2   1   34.16    2.59
 -16  -2  -1   31.93    3.43
 -16  -2  -1   27.87   15.39
  16  -2   1   49.67    6.49
 -16  -2  -1   41.61    6.20
 -16  -2  -1   36.21    2.94
  16  -2   1   34.68    4.12
 -16  -2  -1   47.83   14.94
  16   2   1   30.48    5.44
  16   2   1   25.29    4.55
  16   2   1   19.81    4.86
 -16   2  -1   18.71    3.89
 -18  -2  -1   19.87    4.40
 -18  -2  -1   20.57    2.13
 -18  -2  -1   20.06   14.28
  18  -2   1   21.95    2.03
 -18  -2  -1   26.65    3.25
  18  -2   1   30.64    5.45
 -18  -2  -1   20.66   17.39
 -18   2  -1   18.35    4.09
  18   2   1   24.06    4.62
  18   2   1   20.22    5.35
 -20  -2  -1   -5.22   15.85
 -20  -2  -1   11.75   15.67
  20  -2   1    3.28    2.62
  20  -2   1    5.52    1.52
 -20   2  -1   10.42    3.60
  20   2   1   12.71    4.77
  20   2   1   11.94    3.56
 -22  -2  -1   43.85   20.01
 -22  -2  -1   63.54   23.92
  22  -2   1   39.61    3.46
  22  -2   1   47.23    7.98
  22   2   1   36.93    6.01
  22   2   1   41.32    8.33
  24  -2   1   15.55    4.49
  24  -2   1    7.21    2.16
 -24  -2  -1    1.04   20.25
 -24  -2  -1   22.14   22.48
  24   2   1   16.27    6.12
  24   2   1   13.10    4.18
  26  -2   1    1.70    1.53
 -26  -2  -1  -30.63   24.09
  26  -2   1    1.90    2.78
 -26  -2  -1  -13.22   22.31
  26   2   1    6.02    3.37
  26   2   1   -0.01    3.08
  28  -2   1   10.98    3.04
  28  -2   1   13.45    4.64
 -28  -2  -1   26.88   31.40
  28   2   1    6.13    3.93
  28   2   1   10.47    5.92
 -30  -2  -1  -37.22   34.97
  30  -2   1   11.90    3.34
  30  -2   1    5.08    4.13
  30   2   1    4.97    4.18
  30   2   1   12.35    5.96
  32  -2   1   10.37    3.47
 -32  -2  -1  -58.26   43.92
  32  -2   1    3.87    4.43
  32   2   1    6.35    5.63
  32   2   1    7.49    4.61
  34  -2   1    2.54    2.78
 -34  -2  -1   51.25   54.37
  34  -2   1    1.10    4.57
  34   2   1    0.89    3.84
  34   2   1    4.27    6.01
  35  -3  -1    3.15    4.64
  35   3  -1   -0.57    3.78
  35   3  -1   -0.99    3.54
  33  -3  -1    6.01    3.18
  33  -3  -1    7.33    4.29
  33   3  -1    6.07    5.84
  33   3  -1    5.44    4.72
 -31  -3   1   -1.76   50.35
  31  -3  -1   21.59    4.31
  31  -3  -1   18.54    6.21
  31   3  -1   27.29    8.44
  31   3  -1   20.27    5.76
 -29  -3   1   -2.68   41.21
  29  -3  -1   32.56    4.99
  29  -3  -1   27.35    7.20
  29   3  -1   19.09    7.34
  29   3  -1   21.83    5.74
  27  -3  -1   47.90    9.07
 -27  -3   1   74.51   38.85
  27  -3  -1   40.01    4.27
 -27  -3   1  -14.35   29.02
  27   3  -1   34.21    8.74
  27   3  -1   44.55    7.65
  25  -3  -1   65.31    5.42
 -25  -3   1   66.91    5.03
 -25  -3   1   24.69   33.03
  25  -3  -1   60.79    9.33
 -25  -3   1  101.03   38.88
  25   3  -1   60.12   10.83
 -25   3   1   61.53   13.74
  25   3  -1   64.32    8.93
 -25   3   1   41.43   13.29
  23  -3  -1  150.07    9.09
 -23  -3   1  142.79   38.55
 -23  -3   1  175.60   36.73
  23  -3  -1  175.61   13.04
 -23  -3   1  149.91    9.17
 -23  -3   1  152.80   10.07
  23   3  -1  166.91   12.10
 -23   3   1  155.84   20.23
  23   3  -1  155.64   14.33
 -23   3   1  168.54   22.40
 -21  -3   1  170.24    9.91
  21  -3  -1  191.12   13.07
  21  -3  -1  163.99    9.35
 -21  -3   1  176.05   34.36
 -21  -3   1  180.53   11.33
 -21  -3   1  124.33   34.68
  21   3  -1  175.39   14.36
 -21   3   1  161.84   20.46
  21   3  -1  153.81    8.03
  21   3  -1  173.97   12.04
 -19  -3   1  198.83   10.84
 -19  -3   1  178.25   12.01
  19  -3  -1  186.84    9.92
 -19  -3   1  191.79   34.79
  19  -3  -1  165.10   17.64
 -19  -3   1  251.17   46.63
  19   3  -1  168.87   11.95
 -19   3   1  227.93   22.30
  19   3  -1  196.72   14.59
  19   3  -1  174.01    8.59
 -17  -3   1  687.98   31.87
 -17  -3   1  700.22   33.91
 -17  -3   1  669.09   62.95
  17  -3  -1  685.77   30.87
  17  -3  -1  702.86   40.35
  17   3  -1  672.86   29.52
  17   3  -1  760.53   33.84
 -17   3   1  723.98   42.78
  17   3  -1  721.09   36.12
  15  -3  -1  561.63   24.11
  15  -3  -1  520.32   32.96
 -15  -3   1  512.92   24.93
 -15  -3   1  546.65   27.09
 -15  -3   1  521.32   26.68
 -15  -3   1  654.68   56.98
 -15  -3   1  505.86   45.26
  15   3  -1  516.34   22.57
  15   3  -1  564.52   26.44
  15   3  -1  534.52   28.24
 -15   3   1  535.43   34.76
 -13  -3   1  405.41   21.04
  13  -3  -1  430.31   18.92
  13  -3  -1  402.64   27.39
 -13  -3   1  410.72   21.61
 -13  -3   1  347.22   35.62
  13  -3  -1  395.17   20.47
 -13  -3   1  415.35   19.83
  13   3  -1  428.94   22.51
 -13   3   1  437.33   29.53
  13   3  -1  427.89   20.83
  13   3  -1  400.62   17.32
  11  -3  -1 1341.12   65.54
 -11  -3   1 1275.98   76.19
 -11   3   1 1319.82   66.94
   9  -3  -1 1708.69   84.00
  -9  -3   1 1803.55   93.80
   9   3  -1 1696.93   92.40
  -9   3   1 1830.16   85.23
  -7  -3   1 1203.72   68.95
   7  -3  -1 1233.42   63.62
  -7   3   1 1272.49   64.16
   7   3  -1 1292.63   70.27
  -5  -3   1 2686.20  126.40
   5  -3  -1 2557.82  122.38
   5   3  -1 2785.30  127.49
  -5   3   1 2654.84  122.92
   3  -3  -1 1345.63   67.30
  -3  -3   1 1373.72   68.18
   3   3  -1 1145.92   66.13
  -1  -3   1 2140.77  116.07
   1  -3  -1 2620.18  121.21
   1   3  -1 2752.80  119.49
  -1   3   1 2804.53  122.81
   1  -3   1 1833.04   87.87
   1  -3   1 1898.26   93.53
  -1  -3  -1 1968.99   95.24
   1   3   1 1839.58   94.89
   3  -3   1 1032.86   53.28
  -3  -3  -1  990.35   58.32
   3  -3   1 1006.61   49.46
   3   3   1  894.91   57.87
   5  -3   1 2512.65  112.72
   5  -3   1 2511.35  110.35
  -5  -3  -1 2582.20  125.55
  -7  -3  -1 3029.17  146.18
   7  -3   1 2989.91  126.05
   7  -3   1 2986.78  127.08
   7   3   1 2884.64  147.75
  -9  -3  -1 1846.20  101.40
 -11  -3  -1 1035.08   68.36
 -11  -3  -1 1001.37   62.10
  11   3   1 1027.50   47.84
  11   3   1 1026.95   46.01
  11   3   1 1029.74   46.73
 -13  -3  -1  878.62   65.39
 -13  -3  -1  943.92   43.23
 -13  -3  -1  959.82   44.22
 -13  -3  -1  924.61   41.78
  13   3   1 1006.06   44.71
  13   3   1  991.46   43.79
  13   3   1  969.21   45.82
 -15  -3  -1  688.44   30.98
 -15  -3  -1  709.83   51.86
 -15  -3  -1  719.86   33.85
 -15  -3  -1  699.27   56.93
 -15  -3  -1  730.16   32.65
  15  -3   1  715.77   32.37
  15   3   1  685.78   33.09
 -15   3  -1  721.20   33.07
  15   3   1  675.14   33.94
  15   3   1  576.16   34.40
 -17  -3  -1  497.10   25.07
  17  -3   1  550.39   26.14
 -17  -3  -1  541.54   50.61
 -17  -3  -1  524.27   44.80
 -17  -3  -1  502.18   26.76
 -17  -3  -1  513.42   23.91
 -17   3  -1  542.72   26.42
  17   3   1  521.62   26.44
  17   3   1  503.84   28.90
 -19  -3  -1  113.40    7.11
  19  -3   1  109.00    9.08
 -19  -3  -1  128.31    8.31
 -19  -3  -1  151.30   29.72
  19  -3   1  115.68    5.86
 -19  -3  -1   97.47   28.45
  19   3   1  127.31   11.72
  19   3   1  118.08    9.47
 -19   3  -1  114.98    9.28
 -21  -3  -1  121.44   29.66
  21  -3   1  134.70    6.88
 -21  -3  -1  131.66    7.53
 -21  -3  -1  128.09    8.07
  21  -3   1  135.93   10.78
 -21  -3  -1   89.23   28.53
  21   3   1  138.20   10.72
  21   3   1  116.84   12.29
 -21   3  -1  149.95   10.84
  23  -3   1   86.92    8.96
 -23  -3  -1   96.26   28.27
 -23  -3  -1   49.61   24.67
 -23  -3  -1   87.59    4.79
 -23  -3  -1   87.37    4.97
  23  -3   1   82.01    5.16
  23   3   1   76.07   12.11
  23   3   1   87.08    8.78
  25  -3   1   39.46    7.56
  25  -3   1   46.03    3.74
 -25  -3  -1   73.67   32.49
 -25  -3  -1   45.07   28.72
  25   3   1   45.78    7.85
  25   3   1   45.54   10.15
  27  -3   1   31.96    3.36
 -27  -3  -1   -9.35   28.57
 -27  -3  -1   28.05   30.33
  27  -3   1   35.54    8.00
  27   3   1   39.87    7.68
  27   3   1   26.92    8.10
  29  -3   1   35.76    3.97
  29  -3   1   18.20    6.05
 -29  -3  -1  -49.20   35.92
  29   3   1   42.70    8.18
  29   3   1   26.95    8.23
 -31  -3  -1   43.63   48.83
  31  -3   1   18.56    6.28
  31  -3   1   19.01    3.97
  31   3   1   20.05    7.77
  31   3   1   21.81    6.03
 -33  -3  -1   11.77   85.77
  33  -3   1   12.07    6.33
  33  -3   1    3.45    2.64
  33   3   1    9.58    6.86
  33   3   1   17.43    5.88
  35  -3   1    4.24    5.17
  35   3   1   -2.43    3.56
  35   3   1    1.59    4.11
  34  -4  -1    2.44    4.21
  34   4  -1    4.21    4.43
  34   4  -1    1.38    4.39
  32  -4  -1    2.70    2.43
  32  -4  -1    3.03    4.27
  32   4  -1    3.98    4.94
  32   4  -1    0.49    3.57
  30  -4  -1    3.92    2.41
  30  -4  -1    3.93    4.15
 -30  -4   1  -24.62   54.75
  30   4  -1    9.03    5.00
  30   4  -1    4.61    4.95
  28  -4  -1    4.60    3.78
 -28  -4   1   -0.03    0.63
 -28  -4   1  -74.71   40.57
 -28  -4   1   -0.29    0.56
  28   4  -1    7.22    4.53
  28   4  -1   14.41    6.29
 -26  -4   1   -4.61   37.06
  26  -4  -1   19.75    3.44
 -26  -4   1   25.49   33.56
 -26  -4   1   25.52    4.47
  26  -4  -1   23.35    6.21
  26   4  -1   15.19    5.24
  26   4  -1   23.15    7.08
 -24  -4   1   51.58    6.95
 -24  -4   1   61.89   34.49
 -24  -4   1   44.66    4.75
  24  -4  -1   46.56    8.02
 -24  -4   1   13.35   26.29
  24  -4  -1   42.06    4.14
  24   4  -1   44.05    7.71
  24   4  -1   41.60    9.67
 -22  -4   1   24.88    5.19
 -22  -4   1   30.65   29.31
  22  -4  -1   33.57    4.25
 -22  -4   1   35.82    4.93
 -22  -4   1    9.83   25.78
  22  -4  -1   28.66    5.93
  22   4  -1   23.76    6.83
 -22   4   1   18.55    7.86
  22   4  -1   23.35    5.71
 -20  -4   1   11.95    4.06
 -20  -4   1   14.23    3.29
  20  -4  -1   13.23    7.03
 -20  -4   1   39.22   26.29
  20  -4  -1   13.12    2.78
  20   4  -1   19.73    4.87
 -20   4   1   27.35    9.78
  20   4  -1   17.82    6.00
 -18  -4   1   38.49    5.21
  18  -4  -1   33.41    3.48
 -18  -4   1   43.44   27.70
 -18  -4   1   56.42    8.11
  18  -4  -1   31.41    8.62
 -18  -4   1   50.19   20.85
  18   4  -1   35.57    6.21
 -18   4   1   33.07   10.71
  18   4  -1   33.69    7.21
 -16  -4   1   78.50   24.25
  16  -4  -1  113.68   14.26
 -16  -4   1   98.94   29.59
 -16  -4   1   85.80    6.83
 -16  -4   1  111.42    8.61
  16  -4  -1   87.59    6.03
 -16  -4   1  100.28    8.91
 -16   4   1   92.21   15.50
  16   4  -1   95.61    9.56
  16   4  -1   76.45    7.66
  14  -4  -1   68.27   12.09
  14  -4  -1   53.61    4.24
 -14  -4   1   38.70   21.51
 -14  -4   1   52.23    5.71
 -14  -4   1   47.71    4.80
 -14  -4   1   53.35    7.55
 -14  -4   1   45.81   17.90
  14   4  -1   43.11    7.14
  14   4  -1   55.44    5.91
 -14   4   1   64.35   13.02
 -12  -4   1   74.97   24.81
  12  -4  -1   79.06    5.51
 -12  -4   1   87.18   21.66
 -12  -4   1   79.72    7.45
  12  -4  -1   96.34   14.70
 -12  -4   1   74.68    5.96
 -12  -4   1   81.39    6.93
 -12   4   1   80.11   14.44
  12   4  -1   92.08    8.23
  12   4  -1   80.19    6.88
  10  -4  -1    1.89    1.58
 -10  -4   1   14.57   14.36
  10  -4  -1    2.95    1.52
 -10  -4   1    3.50    1.75
 -10  -4   1    4.24    1.96
  10  -4  -1   -3.52    5.95
 -10  -4   1    4.80    2.56
 -10  -4   1   11.81   11.05
  10   4  -1    6.99    2.44
  10   4  -1   10.37    3.36
 -10   4   1    7.93    7.12
  -8  -4   1  185.74   12.25
   8  -4  -1  159.98   18.91
  -8  -4   1  179.53   33.86
   8  -4  -1  187.27   10.98
   8  -4  -1  189.61   10.35
  -8  -4   1  225.71   24.44
  -8  -4   1  187.01   10.68
  -8  -4   1  202.25   11.51
   8   4  -1  180.79   12.04
   8   4  -1  196.37    8.54
   8   4  -1  188.74   11.45
  -8   4   1  215.10   21.24
  -6  -4   1   79.00   19.99
   6  -4  -1  106.80    7.16
   6  -4  -1  112.91   18.39
  -6  -4   1   92.98    7.77
  -6  -4   1   91.69    6.57
  -6  -4   1  103.87   18.81
  -6  -4   1  100.25    7.13
   6  -4  -1  113.05    7.12
   6  -4  -1   98.32    6.68
   6   4  -1  103.54    7.95
  -6   4   1  109.30   17.60
   6   4  -1  106.57    5.33
   6   4  -1  110.30    7.62
  -4  -4   1   19.90    9.39
  -4  -4   1   26.78    3.80
  -4  -4   1   18.47   12.04
   4  -4  -1   20.49    3.37
   4  -4  -1   29.45    4.28
  -4  -4   1   17.80    1.77
  -4  -4   1   23.05    3.34
   4  -4  -1   20.36    8.51
   4  -4  -1   20.22    3.07
   4   4  -1   11.13    2.90
   4   4  -1   11.11    1.83
  -4   4   1    7.23    7.98
   4   4  -1   10.94    3.01
   2  -4  -1   53.52    4.77
  -2  -4   1   55.96    4.38
   2  -4  -1   57.00    4.96
  -2  -4   1   68.40    4.90
   2  -4  -1   61.44    4.34
  -2  -4   1   54.46   15.89
  -2  -4   1   65.41   14.04
   2  -4  -1   70.92   14.53
  -2  -4   1   56.74    3.68
  -2   4   1   47.34    4.60
   2   4  -1   37.38    4.21
   2   4  -1   42.69    3.47
   2   4  -1   38.31    4.23
  -2   4   1   45.71    4.25
   0  -4   1  336.03   27.44
   0  -4   1  373.79   17.86
   0  -4  -1  369.45   18.93
   0  -4   1  306.17   30.65
   0  -4  -1  362.91   17.36
   0  -4   1  344.41   17.18
   0  -4   1  365.69   17.97
   0  -4  -1  341.65   31.32
   0  -4  -1  361.02   18.95
   0   4  -1  397.51   18.17
   0   4   1  434.17   19.22
   0   4   1  476.04   36.03
   0   4   1  418.25   19.26
   2  -4   1  148.85    8.10
   2  -4   1  135.09   17.57
  -2  -4  -1  139.56    9.34
  -2  -4  -1  142.79    9.24
   2  -4   1  133.67    7.75
   2  -4   1  165.12   16.31
  -2  -4  -1  142.48    8.84
   2  -4   1  152.71    8.08
  -2  -4  -1  158.05    7.57
  -2  -4  -1  125.17   22.44
   2   4   1  127.42    8.86
  -2   4  -1  136.41    7.76
  -2   4  -1  122.26    7.81
   2   4   1  131.65    9.15
   2   4   1   79.13   18.59
   4  -4   1   16.10    2.67
   4  -4   1   21.76    6.94
  -4  -4  -1   19.96    3.52
   4  -4   1   26.68    8.77
   4  -4   1   21.07    2.39
  -4  -4  -1   23.83    4.38
  -4  -4  -1   29.60   12.62
  -4  -4  -1   19.54    1.87
  -4  -4  -1   22.47    4.42
   4   4   1   32.96   13.43
   4   4   1   27.23    4.56
  -4   4  -1   11.32    2.40
   4   4   1   20.76    4.15
  -6  -4  -1  171.93    7.61
   6  -4   1  156.44    9.23
  -6  -4  -1  173.73   26.93
   6  -4   1  132.37   13.72
   6  -4   1  162.69   16.33
  -6  -4  -1  154.04   10.41
   6  -4   1  164.40    8.75
  -6  -4  -1  154.99   10.58
  -6  -4  -1  149.48    9.58
  -6   4  -1  170.79    9.70
   6   4   1  160.12   10.54
   6   4   1  160.51   27.80
   6   4   1  160.87   11.13
   8  -4   1  153.80    9.60
   8  -4   1  192.25   15.45
  -8  -4  -1  190.11   30.17
  -8  -4  -1  165.35   10.93
   8  -4   1  163.03   13.28
  -8  -4  -1  165.42   11.08
  -8  -4  -1  167.09    7.22
  -8  -4  -1  160.47    9.85
   8   4   1  163.80   10.77
  -8   4  -1  162.80   10.02
   8   4   1  153.35   11.46
   8   4   1  167.74   11.15
 -10  -4  -1  138.46    8.96
 -10  -4  -1  167.20   26.95
  10  -4   1  144.88   10.28
  10  -4   1  140.66    9.11
 -10  -4  -1  167.03   30.87
 -10  -4  -1  135.20   10.04
 -10  -4  -1  144.24   10.31
  10  -4   1  161.59   11.46
  10   4   1  142.56   10.15
  10   4   1  148.97   10.65
 -10   4  -1  148.02    9.58
  10   4   1  151.04   11.45
 -12  -4  -1   78.57    7.22
 -12  -4  -1   73.11    6.98
 -12  -4  -1   72.52   18.97
 -12  -4  -1   69.52   22.43
 -12  -4  -1   72.26    5.91
  12   4   1   73.07    7.17
  12   4   1   95.17    7.75
 -12   4  -1   79.36    6.80
  12   4   1   87.23    8.67
 -14  -4  -1   84.79    7.50
 -14  -4  -1  114.83   24.54
 -14  -4  -1   67.53   22.35
 -14  -4  -1   78.91    6.09
 -14  -4  -1   66.28    6.95
  14   4   1   66.81    8.05
  14   4   1   80.47    7.66
 -14   4  -1   75.60    6.95
  14   4   1   63.84    6.90
 -16  -4  -1  152.24   32.52
 -16  -4  -1  144.35   10.73
 -16  -4  -1  135.40    9.99
 -16  -4  -1  119.19   25.81
 -16  -4  -1  122.41    8.34
  16   4   1  135.17   10.44
  16   4   1  112.04   11.30
 -16   4  -1  132.35    9.97
  18  -4   1   20.37    4.33
 -18  -4  -1    8.43   16.79
 -18  -4  -1   26.67    5.07
 -18  -4  -1   22.90    3.71
  18   4   1   25.25    6.82
  18   4   1   19.49    5.01
 -18   4  -1   32.28    6.07
 -20  -4  -1    9.42    3.11
 -20  -4  -1   -2.16   16.52
  20  -4   1    8.48    1.43
 -20  -4  -1    6.39    2.19
 -20  -4  -1   20.03   21.67
  20  -4   1   11.20    3.55
  20   4   1    8.78    4.59
  20   4   1   17.27    5.06
 -20   4  -1   11.74    4.07
 -22  -4  -1   42.23    5.88
 -22  -4  -1   43.41   28.24
  22  -4   1   38.30    6.83
  22  -4   1   37.44    2.81
 -22  -4  -1   19.70   20.82
 -22  -4  -1   37.10    3.92
  22   4   1   40.03    9.48
  22   4   1   45.53    7.85
 -24  -4  -1    5.89   25.15
 -24  -4  -1   31.33    4.33
  24  -4   1   29.41    6.29
 -24  -4  -1   37.45   31.51
  24  -4   1   27.95    2.62
  24   4   1   21.90    6.12
  24   4   1   28.25    7.61
  26  -4   1   13.91    2.25
 -26  -4  -1   33.76   33.64
 -26  -4  -1   15.22   35.73
  26  -4   1   12.39    4.63
  26   4   1   11.94    4.83
  26   4   1    4.46    4.91
  28  -4   1   21.80    3.08
  28  -4   1   11.56    5.23
 -28  -4  -1    0.47   41.50
  28   4   1   16.77    5.56
  28   4   1   13.08    6.87
 -30  -4  -1   18.47   48.88
  30  -4   1    4.82    2.06
  30  -4   1    5.96    4.63
  30   4   1    1.59    3.65
  30   4   1    2.83    4.31
  32  -4   1    5.01    4.23
  32   4   1    1.13    4.02
  32   4   1    1.79    4.72
  34  -4   1    6.92    5.41
  34   4   1    3.80    5.56
  34   4   1    3.75    5.30
  33  -5  -1   16.25    6.09
  33   5  -1   20.36    7.08
  33   5  -1    7.76    6.26
  31  -5  -1    6.45    4.81
  31  -5  -1   10.94    3.00
  31   5  -1    2.70    4.70
  31   5  -1   19.78    6.55
 -29  -5   1   34.94   57.33
  29  -5  -1   20.56    5.63
  29  -5  -1   18.41    3.52
  29   5  -1   22.26    6.61
  29   5  -1   21.22    8.14
  27  -5  -1   31.48    6.86
 -27  -5   1   31.61    5.70
 -27  -5   1  -39.14   38.98
  27  -5  -1   26.35    4.00
  27   5  -1   23.52    7.74
  27   5  -1   24.54    6.95
  25  -5  -1   74.92    5.71
  25  -5  -1   50.28    8.78
 -25  -5   1   32.56   42.02
 -25  -5   1   73.59    6.56
 -25  -5   1   72.83    7.67
 -25  -5   1   -8.32   37.10
  25   5  -1   60.70    9.91
  25   5  -1   83.49   14.47
 -23  -5   1   69.33   38.76
 -23  -5   1   66.71    6.43
 -23  -5   1   73.73    8.25
 -23  -5   1    5.51   30.95
  23  -5  -1   75.27    5.71
  23   5  -1   70.91   10.18
  23   5  -1   78.81   12.86
 -21  -5   1  102.37    7.95
  21  -5  -1   86.78    6.47
 -21  -5   1  105.01    9.84
 -21  -5   1  100.01   32.90
 -21  -5   1   76.08   36.00
  21   5  -1  102.43   11.77
  21   5  -1  102.72    9.84
 -19  -5   1  197.80   12.17
 -19  -5   1  172.52   43.58
  19  -5  -1  214.30   16.33
 -19  -5   1  163.28   35.83
  19  -5  -1  204.27   10.93
 -19  -5   1  194.36   14.31
 -19   5   1  185.40   18.73
  19   5  -1  165.97   13.52
  19   5  -1  171.16   15.38
  17  -5  -1  375.08   18.54
 -17  -5   1  401.74   22.88
  17  -5  -1  408.01   27.29
 -17  -5   1  369.63   19.79
 -17  -5   1  392.97   51.04
 -17  -5   1  401.35   46.23
  17   5  -1  357.40   23.54
  17   5  -1  392.74   22.17
 -17   5   1  345.03   28.41
  15  -5  -1  553.14   26.20
 -15  -5   1  582.01   61.93
  15  -5  -1  623.67   37.64
 -15  -5   1  617.78   54.16
 -15  -5   1  561.41   28.83
 -15  -5   1  540.27   27.29
 -15   5   1  595.12   38.80
  15   5  -1  531.66   30.76
  15   5  -1  568.41   29.50
 -13  -5   1  489.98   46.93
 -13  -5   1  643.74   61.36
  13  -5  -1  523.74   35.70
 -13  -5   1  497.61   25.58
 -13  -5   1  544.42   27.53
  13  -5  -1  487.54   23.38
 -13  -5   1  464.26   24.18
  13   5  -1  469.07   27.16
  13   5  -1  506.83   26.27
 -13   5   1  462.08   35.56
 -11  -5   1  912.94   42.78
  11  -5  -1  934.38   41.09
 -11  -5   1  956.20   76.16
  11  -5  -1  952.29   55.39
 -11  -5   1  888.14   44.20
 -11  -5   1  908.54   41.74
 -11  -5   1  926.08   65.51
  11   5  -1  937.06   43.52
 -11   5   1  905.64   55.77
  11   5  -1  955.05   44.91
   9  -5  -1 1192.04   51.55
  -9  -5   1 1169.16   54.46
  -9  -5   1 1143.45   52.67
  -9  -5   1 1284.73   76.43
   9  -5  -1 1121.43   66.52
  -9  -5   1 1235.41   85.70
   9   5  -1 1181.58   53.47
  -9   5   1 1159.03   67.27
   7  -5  -1 2005.05   98.49
  -7  -5   1 1811.97  101.71
  -7  -5   1 1755.16  110.87
  -7   5   1 1848.20   97.64
   5  -5  -1 2087.24  111.39
  -5  -5   1 2374.53  116.55
  -5  -5   1 2214.91  125.07
  -5   5   1 2170.28  113.48
  -3  -5   1 1752.80   93.64
   3  -5  -1 1707.27   93.53
  -3  -5   1 1750.20  102.02
  -1  -5   1 2684.92  129.37
  -1  -5   1 2613.78  136.67
   1  -5  -1 2613.95  133.59
  -1   5   1 2654.06  135.71
   1  -5   1 2312.26  122.09
   1  -5   1 2436.64  116.35
  -1  -5  -1 2445.27  125.01
   1   5   1 2282.68  125.61
   3  -5   1 1430.83   74.81
   3  -5   1 1542.46   81.51
  -3  -5  -1 1282.91   83.21
   3   5   1 1430.70   88.79
  -5  -5  -1 2128.15  121.05
   5  -5   1 2235.42  110.79
   5  -5   1 2156.49  105.94
   5   5   1 2458.77  129.24
   7  -5   1 1707.92   87.74
   7  -5   1 1734.48   84.47
  -7  -5  -1 1734.78  103.74
   7   5   1 1857.44  110.38
   9  -5   1  628.52   35.66
  -9  -5  -1  623.43   29.62
  -9  -5  -1  656.09   31.69
   9  -5   1  624.40   38.04
  -9  -5  -1  620.70   31.26
  -9  -5  -1  656.47   25.96
  -9  -5  -1  615.34   54.84
   9   5   1  597.48   32.22
   9   5   1  588.55   31.24
  -9   5  -1  606.94   29.83
 -11  -5  -1  646.51   30.68
 -11  -5  -1  681.54   32.92
 -11  -5  -1  644.20   57.72
  11  -5   1  653.06   33.99
 -11  -5  -1  649.26   32.55
 -11  -5  -1  586.75   50.42
  11  -5   1  635.29   35.77
 -11   5  -1  646.26   31.39
  11   5   1  642.92   32.66
  11   5   1  674.25   34.46
 -13  -5  -1  500.58   26.83
 -13  -5  -1  538.49   48.15
 -13  -5  -1  532.82   27.18
 -13  -5  -1  483.56   24.70
 -13  -5  -1  570.76   55.05
  13   5   1  496.97   28.69
  13   5   1  532.43   27.46
 -13   5  -1  478.74   25.80
 -15  -5  -1  571.89   52.13
 -15  -5  -1  565.80   27.20
 -15  -5  -1  482.11   28.50
  15  -5   1  565.93   24.52
 -15  -5  -1  552.28   57.18
 -15   5  -1  610.41   29.18
  15   5   1  593.82   30.23
  15   5   1  550.04   31.64
 -17  -5  -1  331.80   40.51
  17  -5   1  343.67   15.73
 -17  -5  -1  332.81   18.20
 -17  -5  -1  381.76   49.24
 -17  -5  -1  365.66   20.64
  17   5   1  338.91   23.07
  17   5   1  349.89   21.18
 -17   5  -1  363.38   20.52
  19  -5   1  164.87   11.22
  19  -5   1  148.75    7.78
 -19  -5  -1  163.65   39.03
 -19  -5  -1  152.41   33.59
 -19  -5  -1  152.60   11.79
 -19  -5  -1  153.99   10.09
 -19   5  -1  167.89   12.45
  19   5   1  155.98   12.90
  19   5   1  150.20   14.18
 -21  -5  -1  144.63   39.89
  21  -5   1  129.93    6.56
  21  -5   1  132.04   10.24
 -21  -5  -1  103.36    9.64
 -21  -5  -1  114.31    8.43
  21   5   1  121.63   11.51
 -21   5  -1  122.44   10.86
  21   5   1  125.88   13.47
 -23  -5  -1  108.04    9.05
 -23  -5  -1  109.85    7.84
  23  -5   1  105.54    5.77
 -23  -5  -1   13.72   26.04
  23  -5   1  104.91    9.66
 -23  -5  -1  117.48   38.53
  23   5   1  100.29   10.94
  23   5   1   85.43   13.66
 -25  -5  -1   49.80    5.77
 -25  -5  -1  -21.47   30.04
 -25  -5  -1   12.80   33.03
  25  -5   1   82.65   10.95
  25  -5   1   62.12    4.02
  25   5   1   97.85   13.32
  25   5   1   47.64   10.49
  27  -5   1   31.72    2.83
  27  -5   1   31.45    6.71
 -27  -5  -1  -25.49   36.39
  27   5   1   23.31    6.86
  27   5   1   37.90   10.17
 -29  -5  -1  -76.55   44.21
  29  -5   1   22.92    3.10
  29  -5   1   30.20    7.20
  29   5   1   29.85    7.98
  29   5   1   10.73    6.61
  31  -5   1   21.14    6.12
  31   5   1   15.44    6.30
  31   5   1   15.69    6.62
  33  -5   1   14.15    6.01
  33   5   1   -1.68    4.33
  32  -6  -1    3.44    4.23
  32   6  -1    0.35    4.82
  32   6  -1    7.39    6.17
  30  -6  -1    4.35    2.11
 -30  -6   1   -0.15    1.26
  30  -6  -1    4.45    3.97
  30   6  -1    6.46    5.22
  30   6  -1    2.20    4.51
  28  -6  -1   10.98    3.02
  28  -6  -1    7.11    4.83
 -28  -6   1   10.30    4.13
  28   6  -1   14.55    6.63
  28   6  -1   10.65    5.75
  26  -6  -1   12.36    4.56
 -26  -6   1   16.27    4.71
  26  -6  -1   15.94    3.41
 -26  -6   1   -2.60   40.04
  26   6  -1   15.58    6.04
  26   6  -1   14.31    6.51
 -24  -6   1    1.27   39.95
 -24  -6   1  -35.60   34.90
 -24  -6   1   16.37    5.20
  24   6  -1   17.69    5.90
  24   6  -1   13.94    6.17
 -22  -6   1   13.73    4.67
 -22  -6   1  -10.84   34.27
 -22  -6   1  -41.07   28.51
  22  -6  -1   13.92    3.04
  22   6  -1   14.14    5.12
  22   6  -1   13.40    5.41
 -20  -6   1   15.95    5.10
 -20  -6   1    8.69   24.37
 -20  -6   1  -11.92   22.84
  20  -6  -1   11.51    2.91
  20   6  -1   13.44    5.74
  20   6  -1   19.78    5.92
 -18  -6   1   20.61   23.17
  18  -6  -1    7.84    9.42
 -18  -6   1   14.94    5.04
 -18  -6   1   41.40   31.33
  18  -6  -1   11.86    2.96
  18   6  -1    6.57    4.45
  18   6  -1   11.76    4.99
 -18   6   1   10.79   11.57
 -16  -6   1   82.01   11.32
 -16  -6   1   96.09   34.22
 -16  -6   1   62.74   25.60
  16  -6  -1   45.33   13.49
 -16  -6   1   65.96    6.26
  16  -6  -1   63.64    5.70
 -16   6   1   79.93   17.13
  16   6  -1   54.62   10.00
  16   6  -1   61.34    9.28
 -14  -6   1   82.61    8.42
  14  -6  -1   92.83   18.19
  14  -6  -1   64.99    5.87
 -14  -6   1   31.79   19.92
 -14  -6   1   76.59   10.81
 -14  -6   1   71.30    6.58
 -14  -6   1   51.75   27.32
  14   6  -1   75.70   11.23
 -14   6   1   67.05   16.90
  14   6  -1   66.18    9.27
 -12  -6   1    1.89   20.68
 -12  -6   1   16.07   13.10
 -12  -6   1   16.94    5.05
 -12  -6   1   21.38    4.50
 -12  -6   1   15.51    3.63
  12  -6  -1   19.01    3.81
  12  -6  -1   25.57   12.14
  12   6  -1   16.48    5.13
  12   6  -1   11.46    3.99
 -12   6   1   22.06   13.28
 -10  -6   1   16.22   19.91
 -10  -6   1    1.76    1.96
 -10  -6   1   -0.65    1.29
 -10  -6   1    0.52    2.68
 -10  -6   1  -11.10   12.04
  10  -6  -1    5.61   10.64
  10  -6  -1    0.14    1.37
  10  -6  -1    1.44    1.79
  10   6  -1    6.01    2.94
  10   6  -1    7.41    3.46
 -10   6   1    8.04   11.40
  -8  -6   1   26.02    4.64
  -8  -6   1   18.30   19.84
  -8  -6   1   28.11    5.43
  -8  -6   1   19.38   11.47
   8  -6  -1   28.26    4.87
  -8  -6   1   34.14    6.73
   8  -6  -1   20.95    4.22
   8  -6  -1    3.54   12.30
   8   6  -1   28.50    5.64
   8   6  -1   30.74    5.69
  -8   6   1   34.56   14.74
   8   6  -1   33.16    2.60
  -6  -6   1   68.19    5.79
   6  -6  -1   75.64    6.41
   6  -6  -1   69.43    6.30
  -6  -6   1  101.69   26.81
  -6  -6   1   77.99   19.37
   6  -6  -1   61.50   16.99
  -6  -6   1   65.28    6.14
  -6  -6   1   60.93    8.47
  -6   6   1   48.21   17.47
   6   6  -1   54.91    4.22
   6   6  -1   67.07    6.84
   6   6  -1   52.92    7.73
   4  -6  -1   73.01   19.21
   4  -6  -1   86.86    7.29
  -4  -6   1   77.68    7.66
  -4  -6   1  117.84   28.64
   4  -6  -1   85.14    6.42
  -4  -6   1   73.70   19.60
  -4  -6   1   83.18    5.36
  -4  -6   1   85.20    7.03
  -4  -6   1   93.45    6.81
   4  -6  -1   85.09    7.25
   4   6  -1   72.69    5.31
   4   6  -1   73.94    7.22
  -4   6   1   71.97   19.44
   2  -6  -1    0.39    1.50
  -2  -6   1    0.21    0.78
  -2  -6   1    2.94    9.23
  -2  -6   1    1.77    2.07
   2  -6  -1  -13.72    8.64
   2  -6  -1    0.58    1.07
  -2  -6   1   -0.06    1.12
  -2  -6   1   -0.07    1.20
  -2  -6   1    3.08   10.04
   2  -6  -1   -0.31    1.31
   2   6  -1    1.88    1.22
  -2   6   1    7.50   10.51
  -2   6   1    3.26    2.34
   2   6  -1    2.10    1.93
   0  -6  -1   96.66    8.27
   0  -6   1   92.11    7.39
   0  -6   1   95.37    7.15
   0  -6  -1   89.38    6.49
   0  -6  -1  101.47    8.47
   0  -6   1  103.98   23.39
   0  -6   1   96.71    8.16
   0  -6  -1   85.28   21.39
   0  -6   1   83.25    6.26
   0  -6   1  117.95   21.49
   0   6   1  105.41    8.34
   0   6  -1  122.06    7.35
   0   6  -1  131.67    8.27
   0   6   1  139.10   27.30
  -2  -6  -1   80.47    7.57
  -2  -6  -1   79.75    5.52
   2  -6   1   76.57    5.78
   2  -6   1   71.78    6.01
   2  -6   1   74.16    6.35
   2  -6   1   64.33   16.08
  -2  -6  -1   76.64    6.75
   2  -6   1   83.17    7.21
   2  -6   1   63.37   17.79
  -2  -6  -1   66.80    7.10
  -2   6  -1   85.67    6.43
   2   6   1   59.62   22.10
  -2   6  -1   95.67    6.64
   2   6   1   93.11    7.94
  -4  -6  -1   83.68    7.80
  -4  -6  -1   80.14    5.20
  -4  -6  -1   81.50    6.99
   4  -6   1   74.77   16.93
   4  -6   1   86.10    6.49
   4  -6   1   89.79    6.42
  -4  -6  -1  100.14   23.92
  -4  -6  -1   87.96    7.99
   4  -6   1   95.56   20.50
   4  -6   1   84.20    6.21
  -4   6  -1   59.86    5.89
   4   6   1   75.86   23.99
   4   6   1   58.00    7.05
  -6  -6  -1   45.47    7.31
  -6  -6  -1   45.33    7.07
   6  -6   1    8.40    8.67
   6  -6   1   37.89    3.98
  -6  -6  -1   13.61   13.98
   6  -6   1   37.22   13.80
  -6  -6  -1   27.81    2.67
   6  -6   1   32.93    4.73
  -6  -6  -1   39.86    5.91
   6   6   1   66.08    9.23
  -6   6  -1   47.39    4.90
   6   6   1   46.32   20.95
   8  -6   1   24.68   10.58
   8  -6   1   28.02   11.62
  -8  -6  -1   31.90    4.99
  -8  -6  -1   29.57    5.73
  -8  -6  -1   25.84    5.75
   8  -6   1   20.62    3.82
  -8  -6  -1   16.63   11.54
  -8  -6  -1   17.99   17.94
   8  -6   1   28.28    4.39
  -8  -6  -1   18.11    1.84
   8   6   1   33.84    6.73
  -8   6  -1   29.78    5.00
  10  -6   1   30.03    4.71
  10  -6   1   22.33    8.59
  10  -6   1   12.05    9.51
  10  -6   1   24.74    3.92
 -10  -6  -1   25.99    5.47
 -10  -6  -1   23.38    5.28
 -10  -6  -1   32.50   19.80
 -10  -6  -1   20.55    3.90
 -10  -6  -1   14.84   12.11
 -10   6  -1   15.18    4.05
  10   6   1   12.86    4.52
  12  -6   1   14.46    7.03
  12  -6   1   22.11    8.80
 -12  -6  -1   15.29    4.32
 -12  -6  -1   11.63    4.24
 -12  -6  -1   -7.67   17.65
  12  -6   1   13.15    2.85
 -12  -6  -1    5.28   11.27
 -12  -6  -1   16.98    3.72
  12   6   1   12.19    4.61
 -12   6  -1   12.40    3.67
  14  -6   1   43.36    3.98
 -14  -6  -1   41.78    7.22
  14  -6   1   36.14    5.43
  14  -6   1   42.42    6.06
 -14  -6  -1   24.96   18.67
 -14  -6  -1   25.10   22.98
 -14  -6  -1   44.78    4.95
 -14   6  -1   38.55    6.58
  14   6   1   39.51    8.37
 -16  -6  -1   16.93   20.35
 -16  -6  -1   24.52   27.37
 -16  -6  -1   24.92    4.74
 -16  -6  -1   30.01    6.58
  16  -6   1   22.95    3.36
 -16   6  -1   22.51    5.44
  16   6   1   20.91    6.72
  16   6   1   33.43    7.32
 -18  -6  -1   20.97   23.15
  18  -6   1    8.12    1.97
 -18  -6  -1    9.61    4.07
 -18  -6  -1   15.06    3.54
 -18  -6  -1   -4.90   25.02
 -18   6  -1    1.56    2.82
  18   6   1    3.96    3.64
  18   6   1   17.78    6.50
 -20  -6  -1    9.67    3.07
 -20  -6  -1   10.35    4.29
  20  -6   1   10.76    2.09
 -20  -6  -1  -19.00   28.49
 -20  -6  -1    3.45   23.09
 -20   6  -1    8.14    3.99
  20   6   1    4.82    4.35
  20   6   1   13.28    5.01
 -22  -6  -1  -16.27   28.23
  22  -6   1   28.20    2.71
 -22  -6  -1   19.77    5.12
 -22  -6  -1   45.15   35.28
  22  -6   1   18.01    4.54
 -22  -6  -1   17.78    4.08
  22   6   1   18.69    6.64
  22   6   1   24.78    6.83
  24  -6   1   14.38    2.35
 -24  -6  -1    8.85    3.80
 -24  -6  -1  -11.43   36.12
 -24  -6  -1   14.87    3.83
  24  -6   1   17.18    4.93
  24   6   1   11.33    6.39
  24   6   1   12.93    5.41
  26  -6   1   17.76    2.47
  26  -6   1   19.52    5.28
 -26  -6  -1   11.84    3.58
 -26  -6  -1  -13.90   37.80
  26   6   1   15.95    5.94
  26   6   1    9.38    6.39
  28  -6   1    7.44    4.29
 -28  -6  -1   26.40   53.00
  28  -6   1    6.69    1.68
  28   6   1    4.96    5.04
  30  -6   1    2.46    3.02
  30   6   1   -2.08    3.59
  32  -6   1   -0.18    3.33
  32   6   1    4.23    5.20
  31  -7  -1   10.41    4.84
  31   7  -1    8.46    6.30
  31   7  -1    6.22    6.39
  29  -7  -1   17.08    3.65
  29  -7  -1   14.94    5.34
 -29  -7   1   13.83    4.63
  29   7  -1   17.25    6.68
  29   7  -1    3.32    4.95
 -27  -7   1   70.55   61.34
  27  -7  -1   25.52    4.36
 -27  -7   1   40.91    8.00
  27  -7  -1   23.78    6.46
  27   7  -1    7.29    6.13
  27   7  -1   26.16    8.15
 -25  -7   1  -19.20   57.13
 -25  -7   1   45.72    8.57
 -25  -7   1   65.12   48.98
  25  -7  -1   44.28    4.80
  25   7  -1   48.24   10.60
  25   7  -1   55.22   11.02
 -23  -7   1    4.64   36.17
  23  -7  -1   70.87    6.06
 -23  -7   1   56.96    9.98
 -23  -7   1   73.93   48.68
  23   7  -1   64.89   11.62
  23   7  -1   51.47   10.97
  21  -7  -1   67.11    6.06
 -21  -7   1   54.43    9.61
 -21  -7   1   24.44   32.99
 -21  -7   1   66.27   46.93
  21   7  -1   65.29   10.37
  21   7  -1   57.89   11.86
  19  -7  -1  138.88    9.43
 -19  -7   1  120.77   12.59
 -19  -7   1  153.54   51.89
  19  -7  -1  141.55   15.72
  19  -7  -1  115.40   16.31
 -19  -7   1  149.89   43.26
  19   7  -1  145.12   12.99
  19   7  -1  144.13   14.53
  17  -7  -1  260.20   14.75
 -17  -7   1  247.39   18.57
 -17  -7   1  234.88   54.64
  17  -7  -1  281.60   27.93
 -17  -7   1  272.02   48.75
  17   7  -1  226.09   18.78
 -17   7   1  240.84   31.00
  17   7  -1  239.42   18.02
 -15  -7   1  317.29   20.78
 -15  -7   1  233.26   49.40
 -15  -7   1  387.13   46.29
  15  -7  -1  303.03   30.97
  15  -7  -1  319.49   20.02
  15  -7  -1  265.65   16.05
  15   7  -1  317.69   20.22
  15   7  -1  265.36   20.22
 -15   7   1  241.76   32.24
 -13  -7   1  312.92   20.25
  13  -7  -1  272.53   16.92
 -13  -7   1  193.32   45.17
 -13  -7   1  279.24   45.34
  13  -7  -1  300.66   16.48
  13  -7  -1  257.44   31.94
  13   7  -1  275.37   18.78
  13   7  -1  287.25   19.97
 -13   7   1  319.61   34.93
  11  -7  -1  379.12   20.33
 -11  -7   1  467.24   54.10
 -11  -7   1  432.53   47.88
 -11  -7   1  418.43   21.82
 -11  -7   1  358.38   23.03
  11  -7  -1  364.28   20.70
  11  -7  -1  333.08   37.36
  11   7  -1  358.36   23.10
 -11   7   1  359.76   39.66
  11   7  -1  373.40   22.76
  -9  -7   1  704.82   65.51
  -9  -7   1  638.18   33.77
   9  -7  -1  643.47   30.84
   9  -7  -1  584.93   30.67
  -9  -7   1  602.42   30.22
  -9  -7   1  644.84   56.90
  -9  -7   1  678.93   31.79
   9  -7  -1  632.20   50.52
   9   7  -1  619.82   32.72
   9   7  -1  534.74   32.26
  -9   7   1  688.88   53.43
  -7  -7   1  660.68   34.28
   7  -7  -1  657.43   53.19
   7  -7  -1  763.87   34.96
   7  -7  -1  720.55   34.67
  -7  -7   1  753.17   68.35
  -7  -7   1  707.92   33.89
  -7  -7   1  777.50   37.47
  -7  -7   1  736.85   58.53
   7   7  -1  696.77   31.26
  -7   7   1  710.14   58.31
   7   7  -1  662.81   35.82
   5  -7  -1  779.45   61.26
  -5  -7   1  903.10   40.05
  -5  -7   1  796.70   41.34
  -5  -7   1  838.98   36.69
  -5  -7   1  980.05   66.42
   5  -7  -1  828.38   39.97
   5  -7  -1  843.69   40.13
  -5  -7   1  826.28   38.90
  -5  -7   1  749.57   68.70
  -5   7   1  841.18   65.11
   5   7  -1  811.94   40.62
  -3  -7   1  668.80   33.34
  -3  -7   1  563.14   30.16
  -3  -7   1  629.07   31.14
  -3  -7   1  647.95   58.32
   3  -7  -1  642.82   32.15
   3  -7  -1  655.10   32.10
  -3  -7   1  616.19   51.50
  -3  -7   1  611.98   28.75
   3  -7  -1  665.45   54.04
   3   7  -1  667.10   29.39
   3   7  -1  652.92   31.96
   1  -7  -1  875.72   39.65
  -1  -7   1  843.44   39.04
  -1  -7   1  886.86   41.13
   1  -7  -1  873.37   41.36
  -1  -7   1  894.37   40.61
   1  -7  -1  990.49   70.11
  -1  -7   1  793.39   59.88
   1  -7  -1  879.45   42.40
   1  -7  -1  913.42   42.43
  -1  -7   1  842.02   68.25
  -1  -7   1  884.06   42.74
  -1   7   1  939.47   71.93
   1   7  -1  847.29   40.95
  -1   7   1  901.46   41.90
  -1  -7  -1  896.32   43.36
   1  -7   1  854.12   39.96
   1  -7   1  835.49   66.06
   1  -7   1  914.17   41.66
   1  -7   1 1034.64   63.89
  -1  -7  -1  881.38   69.27
   1  -7   1  918.92   41.19
  -1  -7  -1  876.21   43.00
  -1  -7  -1  892.64   39.85
   1  -7   1  900.62   42.95
  -1  -7  -1  873.90   41.96
   1   7   1  898.59   73.29
  -1   7  -1  905.14   41.24
   1   7   1  875.68   42.63
   3  -7   1  716.10   35.66
   3  -7   1  769.62   37.12
  -3  -7  -1  671.90   61.90
  -3  -7  -1  759.34   34.00
   3  -7   1  726.05   58.28
  -3  -7  -1  726.16   36.38
  -3  -7  -1  834.01   38.84
   3  -7   1  704.62   52.35
   3  -7   1  768.84   35.63
  -3  -7  -1  692.48   37.34
   3   7   1  821.88   38.36
   3   7   1  872.61   72.35
  -3   7  -1  830.28   36.03
   5  -7   1  788.07   37.20
   5  -7   1  789.72   36.86
   5  -7   1  839.20   54.40
  -5  -7  -1  807.60   38.17
   5  -7   1  827.34   38.33
  -5  -7  -1  738.42   39.07
  -5  -7  -1  814.11   40.18
  -5  -7  -1  763.78   34.88
  -5  -7  -1  795.21   67.41
   5  -7   1  831.11   58.92
   5   7   1  791.18   39.97
  -5   7  -1  827.16   37.73
  -7  -7  -1  754.31   36.42
   7  -7   1  701.80   49.33
   7  -7   1  920.46   58.72
   7  -7   1  763.96   35.52
  -7  -7  -1  750.47   32.84
  -7  -7  -1  768.82   61.82
   7  -7   1  786.54   36.29
   7  -7   1  786.76   35.31
  -7  -7  -1  721.73   38.30
  -7  -7  -1  812.18   38.54
  -7  -7  -1  742.48   65.22
   7   7   1  688.34   38.31
  -7   7  -1  710.79   36.05
  -9  -7  -1  302.23   48.85
  -9  -7  -1  331.07   39.75
   9  -7   1  368.56   31.25
  -9  -7  -1  377.45   20.69
   9  -7   1  398.45   19.99
  -9  -7  -1  391.50   23.06
  -9  -7  -1  386.52   22.32
   9  -7   1  380.13   35.22
   9  -7   1  376.74   20.09
  -9  -7  -1  364.26   16.81
   9   7   1  381.26   23.57
  -9   7  -1  397.22   21.30
 -11  -7  -1  254.41   17.78
  11  -7   1  279.62   28.50
 -11  -7  -1  252.13   41.73
 -11  -7  -1  260.88   48.07
  11  -7   1  255.65   24.54
  11  -7   1  265.61   15.10
  11  -7   1  257.40   14.82
 -11  -7  -1  263.35   17.12
 -11   7  -1  280.89   16.86
  11   7   1  255.49   18.75
  13  -7   1  309.31   17.08
  13  -7   1  316.99   24.47
 -13  -7  -1  367.74   46.16
  13  -7   1  305.43   27.56
 -13  -7  -1  326.65   20.41
 -13  -7  -1  264.44   47.87
  13  -7   1  304.15   16.30
 -13   7  -1  288.35   18.43
  13   7   1  259.63   20.20
  15  -7   1  221.09   13.53
 -15  -7  -1  280.07   46.16
  15  -7   1  223.33   15.88
  15  -7   1  226.31   12.56
  15  -7   1  218.29   14.92
 -15  -7  -1  235.78   48.85
 -15  -7  -1  190.66   15.51
 -15   7  -1  202.24   14.95
  15   7   1  196.25   17.24
  17  -7   1  204.80   11.79
 -17  -7  -1  151.79   44.12
 -17  -7  -1  241.66   16.68
 -17  -7  -1  190.09   39.90
 -17   7  -1  205.92   15.30
  17   7   1  185.00   17.12
 -19  -7  -1   81.18   32.62
 -19  -7  -1   94.71    9.95
 -19  -7  -1   95.76   42.21
  19  -7   1   80.81    5.93
  19   7   1   59.90   11.28
 -19   7  -1   66.10    9.76
 -21  -7  -1   27.52   34.08
  21  -7   1   61.66    5.02
 -21  -7  -1   40.79   37.61
 -21  -7  -1   74.05   10.52
  21   7   1   63.04   13.03
  23  -7   1   64.93    7.46
  23  -7   1   62.62    4.86
 -23  -7  -1   58.69    9.34
 -23  -7  -1  -34.81   36.93
 -23  -7  -1   83.50   46.95
  23   7   1   65.98   13.33
 -25  -7  -1  -70.78   47.07
  25  -7   1   38.83    6.92
 -25  -7  -1   34.28    6.96
  25   7   1   18.07    7.17
  27  -7   1   18.17    2.73
 -27  -7  -1   58.93   58.18
 -27  -7  -1   16.17    4.98
  27  -7   1   15.67    5.05
  27   7   1   16.60    7.20
 -29  -7  -1   -0.40    1.30
  29  -7   1    3.05    3.59
  29   7   1    8.02    6.81
  31  -7   1   12.15    5.02
  31   7   1    1.08    5.50
  30  -8  -1    3.26    3.53
 -30  -8   1   -0.55    2.18
  30   8  -1    1.85    4.44
  30   8  -1   -0.04    4.61
  28  -8  -1    7.60    4.52
 -28  -8   1    4.48    4.36
  28  -8  -1   10.50    3.34
  28   8  -1    3.52    5.37
  28   8  -1    4.58    4.99
  26  -8  -1   24.85    4.67
 -26  -8   1   17.90    5.85
 -26  -8   1  -51.23   66.42
  26   8  -1   21.58    7.73
  26   8  -1   10.25    6.21
 -24  -8   1  -23.46   59.03
 -24  -8   1   14.08    5.70
  24  -8  -1   12.46    3.42
 -24  -8   1   14.25   50.78
  24   8  -1   15.74    6.90
  24   8  -1    6.75    5.15
  22  -8  -1   14.70    3.87
 -22  -8   1   29.22   36.08
 -22  -8   1   10.69    5.30
 -22  -8   1  -10.16   48.14
  22   8  -1   26.12    7.91
  22   8  -1   19.68    7.32
  20  -8  -1   19.31    4.10
  20  -8  -1    3.84    6.44
 -20  -8   1    0.98   37.63
  20  -8  -1    9.27    7.70
 -20  -8   1   18.62    6.00
 -20  -8   1   38.56   46.37
  20   8  -1   21.91    6.44
  20   8  -1   11.75    6.28
  18  -8  -1   41.44   16.27
  18  -8  -1   24.90    4.91
 -18  -8   1   56.54   35.40
  18  -8  -1   22.53   13.42
 -18  -8   1   31.47    7.97
 -18  -8   1   14.85   34.91
  18   8  -1   32.96    8.21
  18   8  -1   26.11    7.69
 -16  -8   1   43.22   26.59
  16  -8  -1   47.47    6.92
 -16  -8   1   42.96    9.46
 -16  -8   1   72.98   39.17
  16  -8  -1   38.35   19.15
  16   8  -1   46.33    9.60
  16   8  -1   43.95    9.49
 -14  -8   1   50.40   28.73
  14  -8  -1   33.36   20.13
 -14  -8   1   45.41    8.86
 -14  -8   1  133.28   44.80
  14  -8  -1   56.90    7.72
  14   8  -1   53.73    9.42
  14   8  -1   47.40    9.44
 -14   8   1   79.63   26.23
  12  -8  -1   21.95   18.74
 -12  -8   1   42.57    8.94
  12  -8  -1   30.13    5.57
 -12  -8   1   48.60   35.20
 -12  -8   1   59.82   23.91
  12  -8  -1   35.92    6.16
  12   8  -1   50.35    9.78
 -12   8   1    2.84   19.03
  12   8  -1   41.74    7.93
  10  -8  -1    9.61   15.54
 -10  -8   1   14.79    6.36
 -10  -8   1   32.32   28.23
 -10  -8   1    8.95    4.53
  10  -8  -1   19.09    4.81
 -10  -8   1   19.36   17.33
  10  -8  -1   17.96    4.49
  10   8  -1   27.17    6.57
 -10   8   1   31.64   22.43
  -8  -8   1   24.55    6.67
   8  -8  -1   14.61   18.12
  -8  -8   1   25.17    5.58
   8  -8  -1   23.87    5.36
  -8  -8   1   19.70   18.36
  -8  -8   1   14.90   25.19
   8  -8  -1   24.64    5.41
   8   8  -1   14.90    4.95
  -8   8   1    2.95   17.07
  -6  -8   1   96.90   10.01
  -6  -8   1   93.19    6.15
   6  -8  -1   75.22   24.07
   6  -8  -1   97.94    8.91
  -6  -8   1   83.74   33.51
   6  -8  -1   92.52    8.59
  -6  -8   1   89.39    8.24
  -6  -8   1   63.45   22.09
  -6   8   1  130.09   32.29
   6   8  -1   84.32    9.14
   4  -8  -1   26.31    6.02
  -4  -8   1   49.47   25.66
   4  -8  -1   30.23    5.81
  -4  -8   1   28.81    4.12
  -4  -8   1   26.50   18.45
  -4  -8   1   39.88    6.69
   4  -8  -1   24.18   18.24
  -4  -8   1   36.97    7.19
  -4   8   1   13.09   20.62
   4   8  -1   38.43    5.14
   4   8  -1   39.98    7.25
  -2  -8   1    0.12   19.56
  -2  -8   1    0.31    1.92
   2  -8  -1    0.09   15.62
   2  -8  -1    2.77    2.66
  -2  -8   1    0.11    1.59
  -2  -8   1   -0.07   10.08
   2  -8  -1    2.03    2.43
   2  -8  -1    3.28    2.78
  -2  -8   1    3.01    1.45
  -2  -8   1   -0.27    2.21
  -2   8   1    4.55    2.93
   2   8  -1    6.83    2.36
   2   8  -1    7.83    3.34
  -2   8   1  -24.50   16.23
   0  -8   1   36.19   21.48
   0  -8   1   29.32    5.35
   0  -8   1   34.81    6.76
   0  -8  -1   38.39    6.99
   0  -8  -1   33.15    7.00
   0  -8  -1   36.62    6.19
   0  -8  -1    6.33   19.73
   0  -8   1   37.22    6.02
   0   8  -1   44.89    6.14
   0   8   1   58.11    8.46
   0   8  -1   49.58    7.31
   0   8   1   13.83   15.47
   2  -8   1    3.89    3.06
   2  -8   1   -0.72    1.44
  -2  -8  -1   -0.22    1.87
  -2  -8  -1    1.14    2.01
   2  -8   1   12.50   16.56
  -2  -8  -1    0.35    1.19
  -2  -8  -1    6.45   19.37
   2  -8   1   -7.02   11.12
  -2  -8  -1    0.01    2.19
   2  -8   1    1.38    1.91
   2   8   1   -0.84    1.79
  -2   8  -1    3.30    2.21
  -2   8  -1    1.81    2.00
  -4  -8  -1   69.36    9.98
   4  -8   1   54.29    5.61
   4  -8   1   56.33    8.41
  -4  -8  -1   57.35   27.84
   4  -8   1   56.03   22.29
  -4  -8  -1   59.88    9.35
  -4  -8  -1   47.13    4.34
   4  -8   1   59.13    6.15
   4  -8   1   68.95   18.80
   4   8   1   47.47    8.29
  -4   8  -1   46.34    6.94
  -6  -8  -1   38.87    3.66
   6  -8   1   41.84    7.03
   6  -8   1   44.44    6.43
  -6  -8  -1   37.60    7.68
  -6  -8  -1   47.29   27.77
   6  -8   1   46.44    5.42
   6  -8   1   58.64   21.49
   6  -8   1   65.67   17.94
  -6  -8  -1   46.51   22.42
   6   8   1   51.11    9.13
  -6   8  -1   51.73    7.29
  -8  -8  -1   11.33    4.50
   8  -8   1   34.63   15.06
  -8  -8  -1    1.02   18.83
   8  -8   1   10.27    3.21
   8  -8   1   16.49    3.66
  -8  -8  -1    8.93    1.87
   8  -8   1    8.51    3.30
   8  -8   1   12.35   14.58
  -8  -8  -1   15.72   24.81
  -8   8  -1    9.29    3.33
   8   8   1    9.89    4.68
  10  -8   1   29.08   14.56
  10  -8   1   21.90    4.32
 -10  -8  -1   11.89   25.56
  10  -8   1   21.06    4.68
 -10  -8  -1    8.16   15.26
  10  -8   1   31.91   16.60
 -10  -8  -1   18.38    5.75
  10  -8   1   26.36    4.70
 -10  -8  -1   19.59    1.94
  10   8   1    7.71    4.58
 -10   8  -1   16.97    4.43
  12  -8   1   10.03   12.90
 -12  -8  -1  -42.74   20.54
 -12  -8  -1   25.52    6.72
  12  -8   1   13.56    3.88
 -12  -8  -1   47.45   25.74
  12  -8   1   27.12   16.21
  12  -8   1   25.04    4.71
  12   8   1   33.00    8.36
 -12   8  -1   20.18    5.21
 -14  -8  -1   10.21   18.50
  14  -8   1   27.36    4.89
  14  -8   1   17.94   11.31
 -14  -8  -1   22.69    6.74
  14  -8   1   10.00   13.64
  14  -8   1   18.69    4.39
 -14  -8  -1   19.19   24.55
 -14   8  -1   22.00    5.81
  14   8   1   32.05    7.93
 -16  -8  -1   52.21   33.47
  16  -8   1   39.07    5.75
  16  -8   1   38.37    6.73
  16  -8   1   34.60    9.36
 -16  -8  -1   11.22   35.20
 -16  -8  -1   35.53    8.20
  16  -8   1   28.24    7.88
 -16   8  -1   46.74    8.59
  16   8   1   42.99    9.93
 -18  -8  -1   13.69    5.80
 -18  -8  -1   14.89   39.80
  18  -8   1    5.03    2.61
 -18  -8  -1  -34.05   32.80
  18   8   1    8.07    4.90
  20  -8   1    5.53    2.42
 -20  -8  -1   13.34    5.14
 -20  -8  -1   25.63   42.92
 -20  -8  -1    7.74   37.73
  20   8   1    5.89    5.04
 -22  -8  -1   -7.02   46.70
 -22  -8  -1  -37.34   41.64
  22  -8   1   14.40    3.10
 -22  -8  -1    8.18    4.80
  22   8   1   11.28    5.74
  24  -8   1    8.27    3.45
 -24  -8  -1  -14.27   50.77
  24  -8   1    4.69    2.39
 -24  -8  -1    3.18    3.74
  24   8   1    5.25    5.39
 -26  -8  -1    2.54    3.72
 -26  -8  -1   30.76   66.17
  26  -8   1    4.36    3.25
  26  -8   1    9.16    2.40
  26   8   1    6.16    6.41
  28  -8   1    5.67    3.86
 -28  -8  -1    1.34    3.26
  28   8   1    3.48    4.79
 -30  -8  -1   -0.60    1.58
  30  -8   1    5.65    4.23
  30   8   1    5.53    5.77
  29  -9  -1   17.56    5.68
 -29  -9   1    5.73    5.08
  29   9  -1    6.90    6.72
  27  -9  -1   11.92    4.49
 -27  -9   1    4.12    4.85
  27  -9  -1   10.72    5.90
  27   9  -1   22.96    8.30
 -25  -9   1  -31.59   74.19
  25  -9  -1   26.23    5.12
 -25  -9   1   21.60    7.27
  25   9  -1   35.47   10.46
 -23  -9   1   58.84   76.84
  23  -9  -1   52.01    7.38
 -23  -9   1   32.64    8.31
 -23  -9   1  -19.23   57.34
  23   9  -1   36.57    9.89
 -21  -9   1   29.48   52.72
 -21  -9   1   69.54   11.98
  21  -9  -1   49.43    7.25
 -21  -9   1   21.85   58.56
  21   9  -1   39.43   10.11
 -19  -9   1   31.51   45.57
 -19  -9   1   58.80   11.41
  19  -9  -1   59.08   16.47
 -19  -9   1    0.30   50.93
  19  -9  -1   71.77    7.20
  19  -9  -1   70.23   20.47
  19   9  -1   60.26   12.64
  17  -9  -1  126.01   27.52
  17  -9  -1  118.86   10.30
  17  -9  -1  147.08   24.18
 -17  -9   1  152.43   14.40
 -17  -9   1  162.43   58.06
 -17  -9   1  145.01   46.80
  17   9  -1  110.25   13.06
 -15  -9   1  164.76   47.14
 -15  -9   1  181.82   15.41
  15  -9  -1  157.86   34.20
  15  -9  -1  147.11   11.42
  15  -9  -1   91.64   22.45
 -15  -9   1  226.90   63.89
  15   9  -1  128.51   14.03
  13  -9  -1  184.92   13.05
  13  -9  -1  159.46   34.85
 -13  -9   1  170.83   43.98
 -13  -9   1  125.43   49.13
 -13  -9   1  170.58   15.66
  13   9  -1  156.23   14.88
  11  -9  -1  270.86   42.78
 -11  -9   1  257.54   55.31
 -11  -9   1  257.83   48.64
  11  -9  -1  274.91   17.63
 -11  -9   1  265.45   20.26
  11   9  -1  289.28   20.51
   9  -9  -1  384.36   23.24
  -9  -9   1  415.05   68.59
  -9  -9   1  383.82   25.78
  -9  -9   1  451.20   50.55
   9  -9  -1  481.50   52.11
   9   9  -1  407.23   25.28
   7  -9  -1  425.21   25.23
  -7  -9   1  457.72   69.73
   7  -9  -1  442.01   25.34
  -7  -9   1  452.01   27.71
   7  -9  -1  478.06   53.28
  -7  -9   1  462.89   26.99
  -7  -9   1  445.05   54.84
   7   9  -1  436.83   26.31
   5  -9  -1  436.39   25.53
  -5  -9   1  430.67   21.78
  -5  -9   1  444.00   27.41
  -5  -9   1  417.02   24.59
   5  -9  -1  458.08   26.23
  -5  -9   1  490.32   53.63
  -5  -9   1  476.14   60.99
   5  -9  -1  544.87   54.55
   5   9  -1  516.37   26.96
  -3  -9   1  528.45   55.09
  -3  -9   1  524.93   28.46
   3  -9  -1  526.49   29.54
  -3  -9   1  542.24   31.12
   3  -9  -1  547.13   30.29
   3  -9  -1  589.27   58.91
  -3  -9   1  580.26   64.12
   3   9  -1  549.87   29.23
  -1  -9   1  431.66   61.97
  -1  -9   1  493.54   26.24
  -1  -9   1  548.27   53.08
  -1  -9   1  497.73   28.53
   1  -9  -1  483.11   27.96
   1  -9  -1  489.65   56.22
   1  -9  -1  481.28   27.38
   1   9  -1  475.66   24.62
  -1   9   1  467.17   26.73
   1   9  -1  492.65   26.28
  -1  -9  -1  587.31   63.60
   1  -9   1  598.83   61.08
  -1  -9  -1  627.87   58.12
   1  -9   1  575.33   32.09
  -1  -9  -1  611.42   33.02
  -1  -9  -1  549.83   31.49
   1  -9   1  563.56   30.11
   1  -9   1  587.33   54.12
  -1   9  -1  584.70   29.34
   1   9   1  574.50   31.36
  -1   9  -1  623.07   30.27
  -3  -9  -1  617.76   58.52
  -3  -9  -1  471.19   30.54
  -3  -9  -1  684.08   67.70
   3  -9   1  613.44   54.26
   3  -9   1  531.60   30.44
   3  -9   1  570.09   29.25
   3  -9   1  539.12   57.48
  -3   9  -1  571.11   28.75
   3   9   1  579.47   31.04
  -5  -9  -1  486.21   52.02
  -5  -9  -1  403.64   63.08
   5  -9   1  480.73   27.10
   5  -9   1  454.96   50.42
  -5  -9  -1  503.02   28.95
   5  -9   1  490.66   26.45
  -5  -9  -1  426.96   22.52
   5  -9   1  485.57   25.73
   5  -9   1  500.53   45.55
  -5   9  -1  508.89   26.10
   5   9   1  487.62   28.07
  -7  -9  -1  622.21   33.49
   7  -9   1  545.29   55.13
   7  -9   1  572.77   30.65
  -7  -9  -1  522.97   62.80
   7  -9   1  574.70   28.95
   7  -9   1  555.91   29.32
  -7  -9  -1  571.02   26.24
  -7  -9  -1  660.33   63.52
   7   9   1  547.83   32.26
  -7   9  -1  563.98   30.08
  -9  -9  -1  397.39   19.09
   9  -9   1  407.99   22.81
   9  -9   1  442.31   48.35
   9  -9   1  403.57   22.17
  -9  -9  -1  410.29   26.22
   9  -9   1  425.98   23.86
  -9  -9  -1  431.05   60.11
  -9  -9  -1  417.07   63.21
  -9   9  -1  437.15   24.38
   9   9   1  424.40   26.55
 -11  -9  -1  307.36   22.02
  11  -9   1  320.19   19.32
  11  -9   1  338.83   41.61
  11  -9   1  329.65   18.33
  11  -9   1  302.56   32.76
  11  -9   1  296.58   18.55
 -11  -9  -1  401.39   57.86
 -11  -9  -1  398.30   66.98
 -11   9  -1  314.14   20.31
  11   9   1  319.08   22.66
 -13  -9  -1  174.50   41.84
  13  -9   1  249.08   16.08
  13  -9   1  234.39   29.18
 -13  -9  -1  246.69   19.12
  13  -9   1  258.24   16.35
  13  -9   1  281.14   35.34
 -13  -9  -1  311.00   57.91
  13  -9   1  267.14   15.59
  13   9   1  249.89   20.07
 -13   9  -1  261.03   17.95
  15  -9   1  182.09   23.70
 -15  -9  -1  190.45   16.78
  15  -9   1  224.54   14.11
  15  -9   1  205.69   28.91
  15  -9   1  202.41   13.96
 -15  -9  -1  296.69   57.05
 -15  -9  -1  273.95   56.59
 -15   9  -1  204.25   15.94
  15   9   1  176.21   17.46
 -17  -9  -1   97.63   13.87
 -17  -9  -1  -14.64   36.17
  17  -9   1  117.02    9.35
 -17  -9  -1   89.36   50.40
  17   9   1  135.18   14.90
 -19  -9  -1   89.58   13.09
  19  -9   1   64.50    6.62
 -19  -9  -1   56.92   49.61
 -19  -9  -1   26.21   41.60
  19   9   1   65.88   12.76
 -21  -9  -1   41.07   56.43
 -21  -9  -1   47.28    9.83
  21  -9   1   60.53    6.05
 -21  -9  -1  -56.25   47.54
  21   9   1   57.68   13.27
 -23  -9  -1   17.13   55.52
 -23  -9  -1   31.44    7.83
  23  -9   1   44.10    6.04
  23  -9   1   37.22    6.37
  23   9   1   35.36   10.34
 -25  -9  -1   25.50    7.40
 -25  -9  -1  -98.44   79.02
  25   9   1   20.94    7.99
  27  -9   1    3.96    3.41
 -27  -9  -1    4.04    4.40
  27   9   1    7.94    6.84
 -26 -10   1   -4.02    3.07
  26  10  -1    7.80    6.92
  24 -10  -1    3.40    3.15
 -24 -10   1   -0.89    4.16
  24  10  -1    3.08    5.46
 -22 -10   1   33.14   52.07
  22 -10  -1    5.70    3.47
 -22 -10   1    5.75    4.77
  22  10  -1    2.77    4.09
  20 -10  -1   14.80    4.48
  20 -10  -1    1.21   17.96
 -20 -10   1   58.05   59.83
 -20 -10   1   22.78   64.57
 -20 -10   1    7.32    5.92
  20  10  -1    5.94    5.06
 -18 -10   1   10.50    6.00
  18 -10  -1    4.59    3.36
 -18 -10   1  -33.07   56.39
 -18 -10   1  -68.29   48.20
  18 -10  -1   16.20   25.77
  18  10  -1    4.93    4.84
  16 -10  -1   41.02   31.09
 -16 -10   1    9.34    5.86
 -16 -10   1   22.20   44.73
  16 -10  -1   33.29   22.15
  16 -10  -1   13.98    4.64
 -16 -10   1   28.90   55.60
  16  10  -1    4.84    3.94
  14 -10  -1  -12.08   21.90
 -14 -10   1  -27.81   28.45
 -14 -10   1    6.45   47.11
  14 -10  -1   53.81   29.72
 -14 -10   1    5.73    4.81
  14 -10  -1   12.78    4.50
  14  10  -1    5.20    4.64
  12 -10  -1    4.64    3.61
 -12 -10   1   84.65   38.74
 -12 -10   1  -25.16   40.99
  12 -10  -1   31.21   20.28
 -12 -10   1    5.42    4.59
  12 -10  -1  -21.13   27.30
  12  10  -1    5.04    3.97
 -10 -10   1    8.18    4.85
  10 -10  -1   -1.87   19.14
  10 -10  -1    8.49   27.47
 -10 -10   1   14.38   39.22
  10 -10  -1    7.99    4.02
 -10 -10   1   -9.61   28.76
  10  10  -1    2.92    3.61
  -8 -10   1    4.92   29.43
  -8 -10   1    1.60    3.83
   8 -10  -1  -13.88   25.73
   8 -10  -1   16.21    4.85
   8 -10  -1   -3.34   18.01
  -8 -10   1   12.20   38.83
   8  10  -1   13.16    5.54
  -6 -10   1   10.21   26.22
   6 -10  -1    1.48    2.90
  -6 -10   1   25.42   35.06
   6 -10  -1    8.86   19.77
   6 -10  -1    9.27   29.54
  -6 -10   1    1.52    3.17
   6  10  -1    4.51    3.78
  -4 -10   1   -8.03   22.70
   4 -10  -1    1.56    2.95
  -4 -10   1  -37.42   29.32
   4 -10  -1   -6.76   23.73
  -4 -10   1   -2.40    2.22
   4  10  -1    4.18    3.16
  -2 -10   1   23.18   30.05
  -2 -10   1    9.59   22.22
   2 -10  -1   13.49    5.09
  -2 -10   1   11.85    4.84
   2 -10  -1   35.33   32.02
  -2 -10   1    2.68    2.47
   2  10  -1    3.70    3.18
   0 -10   1    4.59    3.65
   0 -10  -1   13.93   21.89
   0 -10   1   10.71    3.80
   0 -10   1   28.47   25.93
   0 -10  -1    3.25   26.49
   0 -10  -1    5.90    4.22
   0  10  -1   14.14    4.54
   0  10   1   16.01    5.14
  -2 -10  -1   -6.30   22.13
   2 -10   1   -9.35   26.99
  -2 -10  -1  -37.30   27.15
   2 -10   1    2.55    3.39
  -2 -10  -1   10.03    4.21
   2 -10   1    5.60    3.23
   2  10   1    4.87    3.66
   4 -10   1    9.05    3.60
  -4 -10  -1  -23.30   29.97
   4 -10   1    3.75    3.35
  -4 -10  -1   11.69   24.43
   4 -10   1   -0.03   27.14
   4 -10   1   25.68   22.50
  -4 -10  -1    9.18    4.84
  -4  10  -1   11.09    3.70
   4  10   1   16.18    5.09
  -6 -10  -1    7.08    2.29
   6 -10   1   10.16    3.78
   6 -10   1    4.67   19.53
   6 -10   1   -9.69   21.43
   6 -10   1   10.68    4.40
  -6 -10  -1   -5.41   32.34
  -6 -10  -1   13.44    5.80
  -6 -10  -1   83.84   32.72
  -6  10  -1   10.53    3.81
   6  10   1    9.85    4.70
   8 -10   1   36.35   22.62
  -8 -10  -1   20.72   36.97
  -8 -10  -1   86.28   34.22
   8 -10   1   22.21   27.21
  -8 -10  -1   21.42    6.75
   8 -10   1   24.70    6.19
  -8 -10  -1   20.16    3.24
   8 -10   1   25.08    5.74
   8  10   1   22.99    6.95
  -8  10  -1   20.82    5.13
 -10 -10  -1   18.07   33.57
  10 -10   1   28.57    6.66
  10 -10   1   27.77   21.33
  10 -10   1   21.06   26.74
  10 -10   1   24.83    5.69
 -10 -10  -1   26.01    7.37
 -10 -10  -1   19.27   36.86
  10  10   1   17.50    5.59
 -10  10  -1   26.78    6.49
 -12 -10  -1   10.55   42.91
  12 -10   1   -2.66   24.70
  12 -10   1   11.16    4.05
  12 -10   1   12.85    4.48
 -12 -10  -1   15.08    5.84
 -12 -10  -1   -5.18   34.59
  12 -10   1    4.02   18.80
  12  10   1   10.10    5.55
 -14 -10  -1   27.40    7.85
  14 -10   1   11.12   25.19
  14 -10   1   14.69    4.44
  14 -10   1  -11.96   17.41
 -14 -10  -1    8.12   44.84
 -14 -10  -1    5.63   38.89
  14  10   1   11.89    6.09
 -16 -10  -1   10.80    5.71
  16 -10   1   -1.72   21.77
 -16 -10  -1    4.63   47.92
 -16 -10  -1   41.44   43.89
  16 -10   1   16.20    4.65
  16 -10   1   22.26   16.39
  16  10   1    8.43    6.01
  18 -10   1   11.51    4.06
 -18 -10  -1   32.86   57.54
 -18 -10  -1   -6.03   48.02
 -18 -10  -1    3.31    4.55
  18  10   1    5.79    5.47
 -20 -10  -1   87.94   60.17
 -20 -10  -1   47.65   66.43
 -22 -10  -1    4.75    4.96
  22 -10   1    4.83    3.03
 -22 -10  -1   -1.27   66.37
  22  10   1    8.77    6.17
 -24 -10  -1    5.06    4.91
  24 -10   1    5.32    3.28
  24 -10   1   14.86    4.28
  24  10   1    6.29    6.36
  26 -10   1    4.76    3.62
 -26 -10  -1   -1.52    3.64
  26  10   1    2.66    5.50
  23 -11  -1   10.53    4.68
 -23 -11   1    4.55    5.52
  23  11  -1   26.39    9.25
 -21 -11   1   12.52    6.88
 -21 -11   1   62.36   85.58
  21 -11  -1   23.55    5.90
  21  11  -1   19.17    7.43
  19 -11  -1   44.90   30.36
 -19 -11   1   62.88   87.16
  19 -11  -1   47.12    8.45
 -19 -11   1   34.55   10.00
 -19 -11   1   12.23   71.30
  19  11  -1   38.68    9.11
 -17 -11   1  -15.29   71.56
  17 -11  -1   76.38   38.28
 -17 -11   1   50.70   11.79
 -17 -11   1   23.15   58.93
  17 -11  -1   54.88    9.00
  17  11  -1   48.87   11.27
 -15 -11   1   26.13   65.96
  15 -11  -1   65.00    9.75
 -15 -11   1   71.53   13.40
 -15 -11   1   81.28   55.93
  15 -11  -1   30.93   36.11
  15  11  -1   72.39   13.39
  13 -11  -1   36.33   36.57
 -13 -11   1  106.99   16.54
  13 -11  -1  104.19   10.37
 -13 -11   1   58.86   60.96
 -13 -11   1  126.74   58.88
  13  11  -1   86.21   13.60
 -11 -11   1  115.95   16.51
 -11 -11   1   55.70   51.33
  11 -11  -1  131.20   44.04
  11 -11  -1   37.57   28.43
  11 -11  -1  110.96   11.17
 -11 -11   1  152.95   62.61
  11  11  -1  109.05   15.37
   9 -11  -1  113.81   35.15
  -9 -11   1  171.78   16.57
   9 -11  -1  172.71   14.49
  -9 -11   1  121.02   49.88
   9 -11  -1  172.20   46.57
   9  11  -1  155.14   14.70
  -7 -11   1  223.24   63.73
  -7 -11   1  170.47   16.60
   7 -11  -1  198.64   41.57
   7 -11  -1  155.10   44.36
   7 -11  -1  194.02   15.54
   7  11  -1  172.49   15.02
   5 -11  -1  155.02   14.61
   5 -11  -1  206.79   51.78
  -5 -11   1  204.73   50.37
   5 -11  -1  179.27   39.66
  -5 -11   1  147.36   15.53
   5  11  -1  187.14   14.69
   3 -11  -1  204.68   48.38
   3 -11  -1  235.65   45.49
   3 -11  -1  208.79   17.56
  -3 -11   1  170.56   52.06
  -3 -11   1  182.64   41.17
  -3 -11   1  237.75   19.21
   3  11  -1  240.83   16.77
  -1 -11   1  191.37   44.29
   1 -11  -1  158.03   40.91
   1 -11  -1  249.77   54.44
  -1 -11   1  258.90   20.01
  -1 -11   1  224.33   54.76
   1 -11  -1  254.50   19.46
   1  11  -1  255.98   17.04
   1 -11   1  210.58   42.92
  -1 -11  -1  223.04   18.20
  -1 -11  -1  234.92   55.37
   1 -11   1  197.28   17.52
   1 -11   1  148.16   51.29
  -1 -11  -1  192.02   45.16
   1  11   1  243.66   17.27
   3 -11   1  226.16   43.79
   3 -11   1  209.88   16.96
  -3 -11  -1  185.68   16.85
   3 -11   1  197.33   54.77
  -3 -11  -1  205.44   55.62
   3  11   1  197.18   16.02
  -5 -11  -1  199.25   56.76
   5 -11   1  140.71   36.50
   5 -11   1  182.53   15.89
   5 -11   1  165.06   44.98
  -5 -11  -1  204.50   17.56
   5  11   1  213.34   16.69
   7 -11   1  186.06   38.68
   7 -11   1   77.05   40.06
  -7 -11  -1  113.10   54.62
   7 -11   1  161.46   14.23
  -7 -11  -1  176.43   16.24
   7  11   1  165.60   15.14
  -9 -11  -1  129.78   14.73
   9 -11   1  145.40   35.34
   9 -11   1  163.12   13.91
  -9 -11  -1  168.52   58.18
   9 -11   1  151.25   44.64
  -9 -11  -1   77.58   46.94
   9  11   1  186.45   16.09
 -11 -11  -1   99.01   14.76
  11 -11   1  141.81   12.47
  11 -11   1   76.57   37.22
 -11 -11  -1  176.26   54.04
 -11 -11  -1   86.52   56.00
  11 -11   1   39.34   30.90
  11  11   1  140.20   14.27
  13 -11   1   40.07   35.84
  13 -11   1   97.89   10.13
 -13 -11  -1   61.85   54.43
 -13 -11  -1   91.60   14.48
 -13 -11  -1   42.63   60.56
  13  11   1  110.21   16.48
 -15 -11  -1   89.61   14.38
 -15 -11  -1   36.19   63.37
  15 -11   1  110.92   34.74
  15 -11   1   81.30    8.92
 -15 -11  -1   69.32   55.75
  15  11   1   52.29   11.61
 -17 -11  -1    0.92   62.45
  17 -11   1   70.00    9.87
 -17 -11  -1   50.39   11.00
  17 -11   1   33.40   25.67
 -17 -11  -1   -2.79   69.97
  17  11   1   33.36    9.92
  19 -11   1   43.96    7.90
 -19 -11  -1   46.44   79.17
 -19 -11  -1   62.76   72.63
 -19 -11  -1   37.54    9.53
  19  11   1   35.16    9.54
  21 -11   1   31.34    6.73
 -21 -11  -1   20.79    7.60
 -21 -11  -1  -23.45   79.48
  21  11   1   31.14    9.61
 -23 -11  -1   14.24    6.47
  23  11   1   26.13    8.96
  22 -12  -1   -0.07    2.91
 -22 -12   1    7.85    6.86
  22  12  -1    7.07    6.89
 -20 -12   1    2.82    4.99
  20 -12  -1    1.44    3.33
  20  12  -1   -0.15    4.11
 -18 -12   1  151.79   90.12
 -18 -12   1   13.38    6.39
  18 -12  -1   -8.30   43.45
  18 -12  -1    8.12    4.66
 -18 -12   1    8.01   98.85
  18  12  -1    9.12    6.05
 -16 -12   1   -0.07    4.05
  16 -12  -1   13.76    5.34
  16 -12  -1   16.91   50.84
 -16 -12   1  125.55   93.36
 -16 -12   1   -5.95   74.05
  16  12  -1    2.57    5.20
 -14 -12   1   -0.57    3.76
 -14 -12   1  -58.68   78.42
  14 -12  -1    0.61    3.11
  14 -12  -1  -39.17   45.43
 -14 -12   1  -69.46   61.85
  14  12  -1   12.38    5.99
  12 -12  -1  -21.18   44.75
 -12 -12   1    5.04    5.63
 -12 -12   1  -22.10   54.38
 -12 -12   1  -35.53   70.95
  12 -12  -1    3.98    4.20
  12  12  -1    3.98    4.22
  10 -12  -1   15.48    5.30
  10 -12  -1   30.59   44.70
 -10 -12   1   11.15    6.69
 -10 -12   1   15.69   64.42
 -10 -12   1   -5.43   49.76
  10  12  -1   19.24    6.45
  -8 -12   1   18.62    6.69
   8 -12  -1   66.46   47.42
  -8 -12   1   -9.19   45.79
   8 -12  -1    4.43    4.60
  -8 -12   1    2.28   57.87
   8  12  -1   20.18    6.66
   6 -12  -1   76.10   48.32
   6 -12  -1    4.44    4.27
  -6 -12   1   16.35   56.83
  -6 -12   1  -12.32   39.82
  -6 -12   1    1.82    4.32
   6  12  -1    2.82    3.63
  -4 -12   1    1.00   39.57
  -4 -12   1  -94.15   47.22
   4 -12  -1  -13.47   47.06
   4 -12  -1   37.91   32.65
  -4 -12   1    1.65    4.05
   4 -12  -1   15.11    5.79
   4  12  -1   13.22    5.01
   2 -12  -1    9.81    5.68
  -2 -12   1   13.84    5.67
  -2 -12   1   38.36   51.19
  -2 -12   1   15.55   34.21
   2 -12  -1   -6.02   41.12
   2 -12  -1  -35.34   31.32
   2  12  -1   10.59    4.14
   0 -12  -1   17.81    5.99
   0 -12   1    7.59   43.81
   0 -12   1  -18.83   32.85
   0 -12  -1    5.15   50.56
   0 -12  -1    4.35   34.29
   0 -12   1   22.76    6.96
  -2 -12  -1   12.22   36.70
   2 -12   1   12.29   42.98
   2 -12   1    8.96    5.37
   2 -12   1   48.10   38.54
  -2 -12  -1   48.58   47.80
  -2 -12  -1   16.33    6.36
   2  12   1   12.83    5.45
  -4 -12  -1    1.16    3.62
   4 -12   1   51.65   42.33
   4 -12   1    5.36    4.60
  -4 -12  -1   20.98   40.16
  -4 -12  -1  -33.93   45.59
   4 -12   1   -0.44   32.85
   4  12   1   16.26    6.07
  -6 -12  -1  -30.58   52.74
   6 -12   1    3.33    3.73
   6 -12   1    3.16   37.19
  -6 -12  -1  -24.08   41.71
  -6 -12  -1    3.00    4.19
   6  12   1   -1.69    3.21
   8 -12   1   28.30   46.17
   8 -12   1   11.59    5.64
  -8 -12  -1    1.97   53.68
  -8 -12  -1   25.96   48.31
  -8 -12  -1    6.11    5.17
   8  12   1    8.75    5.35
  10 -12   1  -55.87   41.03
 -10 -12  -1    4.50    4.96
 -10 -12  -1   -9.29   60.57
 -10 -12  -1   28.23   51.09
  10 -12   1    4.40    3.98
  10  12   1   11.67    5.04
 -12 -12  -1  -11.46   56.70
 -12 -12  -1    8.43    6.00
  12 -12   1   -4.22   39.50
  12 -12   1    9.82    5.09
 -12 -12  -1  -28.59   65.63
  12  12   1    3.90    4.85
  14 -12   1   71.02   44.77
 -14 -12  -1    4.37    5.27
  14 -12   1    4.06    4.32
 -14 -12  -1 -207.72   70.91
 -14 -12  -1   87.72   52.88
  14  12   1    1.97    4.37
 -16 -12  -1  -54.97   74.92
  16 -12   1    2.46    3.83
  16 -12   1  -23.57   37.70
 -16 -12  -1   42.27   86.78
 -16 -12  -1    3.67    4.42
  16  12   1    1.24    4.34
  18 -12   1    5.90    4.47
 -18 -12  -1   93.63   97.83
 -18 -12  -1   16.37    6.47
  18  12   1   10.28    6.70
  20 -12   1    1.18    3.68
 -20 -12  -1    5.02    5.36
  20  12   1    2.70    5.38
 -22 -12  -1    7.08    5.78
  22  12   1    5.80    6.05
 -17 -13   1 -139.23   99.31
  17 -13  -1   26.60    7.27
 -17 -13   1   26.75    9.36
  17  13  -1   24.16    7.95
  15 -13  -1   41.22    9.22
 -15 -13   1  -33.79  121.25
 -15 -13   1   43.51   97.43
 -15 -13   1   42.91   10.95
  15  13  -1   39.24    9.98
 -13 -13   1  125.82   85.65
 -13 -13   1  -41.72   93.65
  13 -13  -1   58.05   10.79
 -13 -13   1   41.10   10.04
  13  13  -1   53.90   10.74
  11 -13  -1   99.97   63.46
 -11 -13   1   74.62   13.87
 -11 -13   1  166.01   95.06
 -11 -13   1  135.26   74.40
  11 -13  -1   82.55   12.73
  11  13  -1   86.80   14.05
   9 -13  -1  115.77   12.49
   9 -13  -1   36.44   65.54
  -9 -13   1   20.73   79.69
  -9 -13   1   96.32   67.54
  -9 -13   1   67.87   14.13
   9  13  -1   62.65   11.07
  -7 -13   1   94.63   15.66
   7 -13  -1   97.76   61.89
  -7 -13   1  149.80   82.62
   7 -13  -1   75.83   13.08
   7  13  -1   95.70   10.89
   5 -13  -1  104.48   16.02
  -5 -13   1   72.75   13.21
   5 -13  -1   36.47   54.68
  -5 -13   1  141.15   75.70
   5  13  -1  101.68   11.13
   3 -13  -1  102.64   15.61
  -3 -13   1  150.87   20.14
   3 -13  -1  119.63   63.78
  -3 -13   1   98.52   66.56
   3  13  -1  108.23   11.28
   1 -13  -1    3.13   59.94
  -1 -13   1  143.29   15.55
  -1 -13   1  102.74   66.27
   1 -13  -1  124.40   13.95
  -1 -13  -1  141.76   15.35
   1 -13   1  142.69   15.72
   1 -13   1   68.51   64.98
  -1 -13  -1   84.85   67.44
  -3 -13  -1  113.76   63.88
   3 -13   1  124.69   13.90
   3 -13   1   21.70   55.54
  -3 -13  -1  129.87   18.27
   3  13   1  106.69   12.11
  -5 -13  -1   93.09   69.34
   5 -13   1  101.14   14.85
  -5 -13  -1  132.51   76.57
  -5 -13  -1  100.39   15.84
   5 -13   1   95.33   65.01
   5  13   1  118.89   12.91
  -7 -13  -1  104.13   16.92
  -7 -13  -1  131.79   76.92
   7 -13   1  105.98   16.09
  -7 -13  -1  184.03   67.02
   7 -13   1  103.11   67.84
   7  13   1  110.44   12.71
  -9 -13  -1   63.82   13.05
   9 -13   1   76.12   12.55
   9 -13   1  103.44   59.58
  -9 -13  -1   90.13   80.72
  -9 -13  -1   55.00   69.54
   9  13   1   71.27   12.36
  11 -13   1   61.25   63.69
 -11 -13  -1   -5.08   86.51
  11 -13   1   69.74   12.00
 -11 -13  -1   21.34   75.49
  11  13   1   52.96   10.72
  13 -13   1   33.47    8.73
  13 -13   1   -7.94   59.20
 -13 -13  -1   -6.25   80.05
 -13 -13  -1   52.19   11.63
 -13 -13  -1  170.12   77.18
  13  13   1   40.35    9.75
 -15 -13  -1  -29.02   89.98
  15 -13   1    4.40   56.04
 -15 -13  -1   41.26   10.20
 -15 -13  -1  -18.05   99.84
  15  13   1   34.67    9.71
 -17 -13  -1   40.67   10.46
  17 -13   1   33.77    7.93
  17  13   1   25.34    8.96
 -14 -14   1    1.59    5.11
  14 -14  -1    0.07    4.06
  14  14  -1   -0.34    3.70
 -12 -14   1    0.15    4.92
  12 -14  -1    5.96    5.13
  12  14  -1    1.54    4.10
 -10 -14   1    7.48    6.04
  10 -14  -1   -0.04    3.72
  10  14  -1    3.45    4.47
  -8 -14   1    5.87    5.71
   8 -14  -1   -0.76    3.55
   8  14  -1    5.08    4.64
  -6 -14   1    1.93    5.30
   6 -14  -1    3.75    5.04
   6  14  -1    1.43    3.68
   4 -14  -1   -0.93    3.85
  -4 -14   1    2.84    4.75
   4  14  -1    0.09    2.90
  -2 -14   1    0.76    4.75
   2 -14  -1    4.87    5.43
   0 -14  -1    5.03    5.33
   0 -14   1    3.12    5.00
  -2 -14  -1   16.11    7.57
   2 -14   1    3.45    5.02
  -4 -14  -1   12.20    7.02
   4 -14   1    0.76    3.60
   4  14   1   -1.20    3.26
   6 -14   1    3.33    4.88
  -6 -14  -1    2.40    5.41
   6  14   1    4.16    4.47
  -8 -14  -1   10.38    6.70
   8 -14   1   -0.11    3.97
   8  14   1    3.02    4.36
 -10 -14  -1   -0.44    4.55
  10 -14   1    6.18    5.28
  10  14   1    3.40    4.51
 -12 -14  -1    3.23    5.30
  12 -14   1   -0.36    4.25
  12  14   1    7.17    5.90
  14 -14   1    2.01    4.79
 -14 -14  -1   12.57    7.03
  14  14   1    3.09    4.58
   5 -15  -1   33.82    9.72
  -5 -15   1   39.74   11.06
   3 -15  -1   36.84    9.92
  -3 -15   1   59.76   13.19
  -1 -15   1   49.24   12.15
   1 -15  -1   31.00   10.29
   1 -15   1   65.92   13.90
  -1 -15  -1   48.85   11.74
   3 -15   1   29.23    9.56
  -3 -15  -1   49.23   11.21
   5 -15   1   52.41   11.54
  -5 -15  -1   45.08   11.88
  34   0  -2    4.38    3.95
 -34   0   2  -44.25   52.99
  34   0  -2   11.90    5.74
  32   0  -2   10.54    4.04
  32   0  -2   14.03    6.21
 -32   0   2   24.62   43.05
  30   0  -2   25.73    7.79
 -30   0   2   23.16   33.94
  30   0  -2   29.00    5.68
 -28   0   2  -26.20   32.22
 -28   0   2    9.69   27.62
  28   0  -2   16.58    5.82
  28   0  -2   25.64    5.12
 -26   0   2  -12.92   28.66
 -26   0   2   82.48   29.93
  26   0  -2   36.01    5.77
  26   0  -2   41.84    8.48
  24   0  -2  116.82   11.28
  24   0  -2  112.96    8.54
 -24   0   2  144.10   30.52
  22   0  -2  106.24    7.89
 -22   0   2  110.03   26.33
  22   0  -2  130.12   26.58
  22   0  -2  111.49   10.35
  20   0  -2  132.85   24.20
  20   0  -2  145.31    9.16
  20   0  -2  140.70    9.09
 -20   0   2  203.64   31.89
  20   0  -2  132.88   11.02
  18   0  -2  220.24   12.71
 -18   0   2  222.90   10.81
  18   0  -2  248.34   12.86
  18   0  -2  232.44   14.87
 -18   0   2  247.78   30.24
 -18   0   2  248.70   11.15
  18   0  -2  232.18   27.81
  16   0  -2  457.81   37.35
  16   0  -2  537.79   24.51
  16   0  -2  427.66   21.78
 -16   0   2  432.08   38.71
  16   0  -2  473.29   21.87
 -16   0   2  449.87   20.71
 -16   0   2  453.73   21.20
  14   0  -2  785.13   34.90
 -14   0   2  829.40   35.15
 -14   0   2  801.62   34.34
 -14   0   2  752.21   52.00
  14   0  -2  777.22   50.46
  14   0  -2  772.67   35.07
 -12   0   2  634.93   43.44
 -12   0   2  627.55   27.72
  12   0  -2  626.12   28.21
  12   0  -2  632.13   42.39
  10   0  -2 2435.09  118.99
 -10   0   2 2580.02  121.22
   8   0  -2 1929.32   93.72
   6   0  -2  238.05   11.02
  -6   0   2  204.83   19.22
   6   0  -2  219.32   19.17
  -6   0   2  227.36   11.00
  -4   0   2  792.52   44.27
   4   0  -2  794.04   43.65
   2   0  -2 2959.02  133.18
  -2   0   2 3044.52  134.28
   0   0  -2 9165.69  458.32
   0   0   2 9235.12  460.35
  -2   0  -2  218.05   16.44
   2   0   2  217.01   16.63
   2   0   2  170.44    9.48
  -2   0  -2  216.72    9.48
  -2   0  -2  214.78    9.91
   2   0   2  210.50    9.63
   4   0   2   55.37    3.97
  -4   0  -2   61.97    3.99
  -4   0  -2   59.60   10.48
  -4   0  -2   56.81    3.17
   4   0   2   55.77    9.92
   4   0   2   55.42    3.43
  -6   0  -2 1619.60   76.09
   6   0   2 1602.17   76.28
  -8   0  -2  682.87   39.07
   8   0   2  728.51   40.20
 -10   0  -2 1014.40   52.18
  10   0   2  916.84   52.52
 -12   0  -2 1388.96   70.55
  14   0   2  431.47   19.29
 -14   0  -2  417.52   19.90
  14   0   2  371.07   19.46
  14   0   2  435.14   19.90
 -14   0  -2  428.57   30.72
 -14   0  -2  389.35   28.31
  14   0   2  455.09   22.25
 -16   0  -2  564.34   25.95
  16   0   2  520.47   25.56
  16   0   2  552.48   26.01
 -16   0  -2  568.57   38.36
  16   0   2  559.79   25.28
 -16   0  -2  529.56   35.76
  16   0   2  609.09   28.88
  18   0   2  106.92    7.45
 -18   0  -2  112.89   18.72
  18   0   2  110.74    7.96
 -18   0  -2  123.86    8.05
 -18   0  -2  143.03   21.43
  18   0   2  122.36   10.09
  18   0   2  119.45    7.51
 -20   0  -2  384.65   31.63
 -20   0  -2  382.35   19.17
  20   0   2  346.05   18.45
 -20   0  -2  384.25   33.62
  20   0   2  350.08   19.22
  20   0   2  380.08   18.60
  20   0   2  388.55   22.43
 -22   0  -2  281.72   28.98
 -22   0  -2  300.35   16.41
 -22   0  -2  323.30   32.46
  22   0   2  309.90   20.05
  22   0   2  292.54   16.90
  22   0   2  288.49   15.91
  24   0   2   86.21    7.15
 -24   0  -2   70.22   19.81
 -24   0  -2   60.77   17.54
  24   0   2   90.28   10.11
 -26   0  -2   40.78   19.45
  26   0   2   44.65    9.13
 -26   0  -2   63.67   19.02
  26   0   2   64.07    6.27
  28   0   2   24.73    7.23
 -28   0  -2   20.33   20.27
 -28   0  -2   45.41   19.54
  28   0   2   42.75    6.60
  30   0   2   18.22    6.73
  30   0   2   24.09    5.18
 -30   0  -2   -2.01   19.01
  32   0   2    7.23    5.97
  32   0   2   19.62    5.38
  34   0   2    5.71    4.10
  34   0   2    6.47    5.62
  35  -1  -2   -1.76    2.45
  35  -1  -2    7.22    5.56
  35   1  -2    1.13    3.60
  35   1  -2    2.69    4.53
 -33  -1   2   27.39   55.27
  33  -1  -2    2.24    3.88
  33  -1  -2   10.63    3.91
  33   1  -2    8.90    4.45
  33   1  -2   11.20    5.99
 -33   1   2    3.90   39.02
 -31  -1   2   40.88   42.29
  31  -1  -2    8.88    3.43
  31  -1  -2   10.91    5.16
  31   1  -2   -2.18    2.94
 -31   1   2   43.70   35.69
  31   1  -2    2.07    3.13
 -29  -1   2  -51.26   33.87
  29  -1  -2   15.00    3.83
  29  -1  -2   12.03    5.22
 -29   1   2   17.56   29.89
  29   1  -2   18.86    4.92
  29   1  -2   10.17    5.34
  27  -1  -2   10.30    3.25
 -27  -1   2   52.59   31.18
 -27  -1   2   13.09   32.63
  27  -1  -2    6.81    4.21
 -27   1   2  -24.83   24.09
 -27   1   2   -0.94   26.29
  27   1  -2    9.89    3.57
  27   1  -2    7.49    4.23
  25  -1  -2   17.33    5.53
  25  -1  -2   14.99    3.46
 -25  -1   2    8.21   23.02
 -25  -1   2   38.31   31.73
 -25   1   2   40.74   23.30
  25   1  -2   15.32    5.14
  25   1  -2   12.38    3.80
  23  -1  -2   38.87   18.03
  23  -1  -2   38.32    5.33
 -23  -1   2   11.46   21.50
  23  -1  -2   41.43    7.92
 -23   1   2   49.71   20.78
  23   1  -2   40.64    4.12
  23   1  -2   46.07    6.23
  23   1  -2   50.54    8.42
 -21  -1   2   31.77    3.07
 -21  -1   2   39.29   18.97
  21  -1  -2   34.64   14.87
  21  -1  -2   37.88    6.67
 -21  -1   2   31.01    2.75
  21  -1  -2   34.35    4.69
  21   1  -2   22.53    5.51
 -21   1   2   11.92   14.33
  21   1  -2   28.45    3.36
  21   1  -2   21.27    4.26
  21   1  -2    8.47   15.72
 -19  -1   2   22.03    3.07
 -19  -1   2   19.58    3.46
  19  -1  -2   20.98    3.59
  19  -1  -2   16.86    4.45
 -19  -1   2   29.63   16.74
  19  -1  -2   17.21   12.33
 -19   1   2   -4.74   12.27
  19   1  -2   15.82    3.61
  19   1  -2   18.82    5.16
  19   1  -2   15.51    2.82
  19   1  -2   -1.33   13.66
 -17  -1   2   26.65    4.28
 -17  -1   2   29.46    3.16
  17  -1  -2   27.50    4.25
  17  -1  -2   24.47   12.01
  17  -1  -2   31.59    4.05
 -17  -1   2    7.09   13.09
  17  -1  -2   28.31    5.16
  17   1  -2   15.80   13.42
  17   1  -2   28.15    4.34
 -17   1   2   18.91   12.93
  17   1  -2   27.56    5.36
  17   1  -2   24.58    2.99
  15  -1  -2   30.60   11.54
 -15  -1   2   31.30    3.87
  15  -1  -2   27.13    3.02
  15  -1  -2   27.46    3.99
 -15  -1   2   28.45   14.29
 -15  -1   2   30.48    4.57
  15   1  -2   18.28    4.04
  15   1  -2   21.12    3.19
  15   1  -2   23.47    3.72
  15   1  -2    2.86    9.91
 -15   1   2    4.86   10.06
  13  -1  -2   80.60   15.45
  13  -1  -2   60.62    4.43
 -13  -1   2   53.00    5.16
  13  -1  -2   61.53    4.91
 -13  -1   2   66.99   16.25
 -13  -1   2   60.17    4.50
  13   1  -2   70.06   15.56
  13   1  -2   53.43    5.33
  13   1  -2   52.82    4.53
  13   1  -2   57.10    4.26
 -13   1   2   69.87   14.58
 -13   1   2   60.90    3.99
 -13   1   2   53.70    3.67
  11  -1  -2   67.16    4.67
  11  -1  -2   49.95   12.19
 -11  -1   2   64.75    4.73
  11  -1  -2   62.27    4.98
  11   1  -2   76.16   15.49
 -11   1   2   71.62    4.43
 -11   1   2   51.12   13.16
  11   1  -2   77.28    5.89
  11   1  -2   68.97    4.89
   9  -1  -2  217.75   10.71
   9  -1  -2  264.15   22.00
  -9  -1   2  226.72   10.89
  -9  -1   2  186.42   21.30
   9   1  -2  214.86   10.84
  -9   1   2  208.64   20.56
   9   1  -2  192.32   20.95
  -9   1   2  209.09   10.44
   9   1  -2  191.75   11.22
  -7  -1   2  283.09   12.47
   7  -1  -2  313.85   22.59
   7  -1  -2  276.92   12.42
  -7  -1   2  266.18   23.06
  -7   1   2  233.54   12.07
  -7   1   2  223.85   20.84
   7   1  -2  240.41   12.22
   7   1  -2  242.13   12.55
   7   1  -2  214.61   21.17
  -5  -1   2  126.45   15.07
  -5  -1   2  134.01    7.55
   5  -1  -2  149.65   15.28
   5  -1  -2  126.16    7.53
   5   1  -2  166.37    7.85
   5   1  -2  169.20   16.56
  -5   1   2  167.31    7.97
  -3  -1   2  194.26    9.11
   3  -1  -2  186.29    9.27
   3  -1  -2  173.96   16.20
  -3  -1   2  177.91   16.91
  -3   1   2  181.75    9.30
   3   1  -2  181.75   16.55
   3   1  -2  184.17    8.99
  -3   1   2  189.53   17.03
   1  -1  -2    0.80    2.50
   1  -1  -2    1.88    1.00
  -1  -1   2    2.79    0.94
  -1  -1   2    2.51    3.94
   1  -1  -2    1.16    0.96
   1   1  -2   -1.45    2.96
  -1   1   2    5.14    1.50
  -1   1   2    0.07    2.56
  -1  -1  -2  408.60   18.22
   1  -1   2  426.44   25.00
  -1  -1  -2  383.98   26.75
  -1   1  -2  359.14   23.64
   1   1   2  387.67   17.85
   1   1   2  387.69   26.97
  -3  -1  -2  315.29   15.35
  -3  -1  -2  317.43   16.08
   3  -1   2  329.75   20.97
   3  -1   2  332.30   14.52
  -3  -1  -2  335.67   24.66
  -3   1  -2  360.75   20.98
   3   1   2  338.50   24.60
   3   1   2  347.95   15.70
   3   1   2  355.11   16.24
   5  -1   2   23.78    2.04
   5  -1   2   21.46    5.48
  -5  -1  -2    5.16    4.98
  -5  -1  -2   22.60    2.24
  -5  -1  -2   20.16    2.22
   5  -1   2   19.00    1.40
  -5  -1  -2   26.88    3.82
   5   1   2   21.42    7.60
   5   1   2   18.78    3.19
   5   1   2   27.32    3.37
  -5   1  -2   20.07    2.24
  -5   1  -2   21.21    1.73
  -5   1  -2   10.31    4.16
   7  -1   2  159.16    7.46
   7  -1   2  162.13    8.94
   7  -1   2  159.22    8.79
   7  -1   2  151.50   12.33
  -7  -1  -2  164.58    8.62
  -7  -1  -2  159.87    8.41
  -7  -1  -2  163.40    8.49
  -7  -1  -2  169.68   17.52
  -7  -1  -2  171.83    9.83
   7   1   2  195.69    9.51
  -7   1  -2  193.97    8.69
   7   1   2  173.82   18.59
  -7   1  -2  195.98    9.38
   7   1   2  194.54   10.56
   9  -1   2   76.27    3.49
   9  -1   2   76.98    3.47
   9  -1   2   66.94    8.58
  -9  -1  -2   74.51    4.14
  -9  -1  -2   72.03    4.37
  -9  -1  -2   82.99    5.90
   9  -1   2   73.64    4.98
   9  -1   2   71.52    5.12
  -9  -1  -2   77.50    4.50
  -9  -1  -2   62.91   13.20
   9   1   2   54.15    4.65
   9   1   2   50.74    5.40
  -9   1  -2   50.55    7.71
   9   1   2   38.96   11.85
  -9   1  -2   51.87    4.61
  11  -1   2  174.41   10.43
  11  -1   2  177.38    8.35
  11  -1   2  189.55    8.29
  11  -1   2  163.50    9.81
 -11  -1  -2  178.78   19.99
 -11  -1  -2  180.74    8.53
 -11  -1  -2  188.06    9.38
 -11  -1  -2  172.51    8.77
 -11  -1  -2  183.28   10.85
  11   1   2  190.17   11.81
  11   1   2  188.59   10.12
  11   1   2  204.39   22.65
 -11   1  -2  188.55   10.23
 -11   1  -2  185.68   14.20
  11   1   2  195.60   10.51
 -11   1  -2  203.19   13.60
  13  -1   2   41.92    4.03
  13  -1   2   44.43    3.17
 -13  -1  -2   45.62    3.69
  13  -1   2   44.55    2.92
 -13  -1  -2   51.97   12.47
 -13  -1  -2   49.67    4.93
 -13  -1  -2   77.93   17.06
  13  -1   2   46.83    4.85
 -13  -1  -2   43.44    2.60
 -13  -1  -2   42.97    2.73
 -13   1  -2   65.93    9.31
  13   1   2   66.37    4.85
 -13   1  -2   66.38    9.87
  13   1   2   68.33    6.47
  13   1   2   67.27    5.28
  15  -1   2    6.12    1.99
 -15  -1  -2    4.32    1.60
  15  -1   2    6.99    1.46
  15  -1   2    8.87    2.98
 -15  -1  -2    3.50    8.50
 -15  -1  -2    6.48    2.62
 -15  -1  -2    3.38    9.86
  15  -1   2    5.30    1.61
 -15   1  -2    5.89    6.07
  15   1   2    1.97    1.61
  15   1   2    1.93    2.15
 -15   1  -2    1.78    1.65
 -15   1  -2   -0.67    4.72
  15   1   2    0.77    1.56
  17  -1   2  103.24    7.66
 -17  -1  -2  112.20    7.29
 -17  -1  -2  111.87    8.71
 -17  -1  -2  154.71   22.56
  17  -1   2  125.86    7.34
 -17  -1  -2  119.57   22.98
  17  -1   2  117.58    9.35
  17  -1   2  121.78    6.65
 -17   1  -2  124.83    8.47
  17   1   2  137.10    9.08
 -17   1  -2  105.55   12.74
  17   1   2  135.85    8.44
  17   1   2   98.72    9.61
 -17   1  -2  126.78   14.75
  19  -1   2   12.85    4.04
 -19  -1  -2   29.28   13.01
  19  -1   2   13.77    2.49
 -19  -1  -2   12.89    2.88
  19  -1   2   11.35    2.62
 -19  -1  -2    5.23   12.64
  19   1   2   12.51    3.28
 -19   1  -2   12.04    3.26
  19   1   2    8.83    3.15
  19   1   2   12.21    4.67
 -19   1  -2    3.44    6.85
 -19   1  -2    8.24    7.56
  21  -1   2   26.62    4.21
  21  -1   2   15.59    4.98
 -21  -1  -2    1.46   13.38
 -21  -1  -2   30.31   18.45
 -21  -1  -2   19.57    3.70
  21  -1   2   25.69    3.66
  21   1   2   16.12    4.12
 -21   1  -2   23.42   10.28
 -21   1  -2   19.26    8.81
  21   1   2   21.24    5.76
  21   1   2   25.71    4.92
 -21   1  -2   13.24    3.57
 -23  -1  -2   36.66   17.90
 -23  -1  -2   41.86   19.04
  23  -1   2   40.46    4.19
  23  -1   2   50.60    8.74
 -23   1  -2   39.46    5.99
  23   1   2   34.11    7.60
 -23   1  -2   40.74   10.46
 -23   1  -2   45.06   11.78
  23   1   2   37.07    5.97
  25  -1   2   12.61    3.11
  25  -1   2   12.73    4.99
 -25  -1  -2    2.77   18.73
 -25  -1  -2   34.49   20.63
  25   1   2   12.72    5.46
 -25   1  -2    7.63    8.83
 -25   1  -2   19.37    8.96
  25   1   2   17.92    4.29
  27  -1   2   20.05    5.88
 -27  -1  -2   11.32   23.41
  27  -1   2   19.45    3.95
 -27  -1  -2   22.39   23.83
  27   1   2   21.99    5.15
  27   1   2   13.10    5.92
 -29  -1  -2   28.68   26.90
  29  -1   2   17.79    6.10
  29  -1   2   17.36    3.99
  29   1   2    3.49    4.85
  29   1   2    2.91    3.40
  31  -1   2    3.32    4.58
  31  -1   2    9.79    3.93
 -31  -1  -2   -8.66   31.16
  31   1   2    5.47    5.21
  31   1   2   12.02    4.54
  33  -1   2    4.39    3.78
  33  -1   2    5.14    5.28
 -33  -1  -2   37.90   35.11
  33   1   2    9.10    6.44
  33   1   2    1.62    3.54
  35  -1   2    4.51    4.87
  35   1   2   -1.37    3.99
  34  -2  -2   12.08    4.11
  34  -2  -2    7.26    5.33
  34   2  -2    2.09    4.38
  34   2  -2    3.65    3.95
 -32  -2   2  -46.86   51.31
  32  -2  -2   17.29    6.32
  32  -2  -2   13.29    3.98
 -32   2   2    6.55   27.19
  32   2  -2    7.30    4.97
  32   2  -2   14.33    5.32
  30  -2  -2   30.39    5.26
  30  -2  -2   24.15    7.16
 -30  -2   2   -0.12   39.73
 -30   2   2   28.06   28.59
  30   2  -2   36.84    7.38
  30   2  -2   32.89    8.67
  28  -2  -2   44.17    8.98
 -28  -2   2  -28.29   35.95
  28  -2  -2   37.28    5.50
 -28   2   2   39.17   26.70
  28   2  -2   28.34    7.44
 -28   2   2   27.32   24.66
  28   2  -2   27.59    6.14
  26  -2  -2   55.29    5.35
  26  -2  -2   53.50    9.18
 -26  -2   2   38.16   36.49
 -26  -2   2   53.80   35.49
  26   2  -2   51.50   10.04
 -26   2   2   35.52   22.32
  26   2  -2   41.86    6.88
  26   2  -2   45.08    4.21
  24  -2  -2  111.13   23.29
 -24  -2   2   97.78   34.65
  24  -2  -2  112.54   11.01
 -24  -2   2  137.65    7.33
 -24  -2   2  177.00   38.29
  24  -2  -2  126.85    8.65
 -24  -2   2  131.98    7.70
 -24   2   2  134.01   27.26
  24   2  -2  122.93    7.74
  24   2  -2  113.58   11.95
  24   2  -2  130.23   10.22
  22  -2  -2  144.38    9.16
  22  -2  -2  139.78   24.22
 -22  -2   2  136.61   33.43
 -22  -2   2  136.97    8.59
 -22  -2   2  147.96    9.55
  22  -2  -2  137.94   11.73
  22   2  -2  159.62   10.90
 -22   2   2  190.41   28.85
  22   2  -2  157.86   13.19
  22   2  -2  151.04    8.56
  20  -2  -2  189.76   13.80
  20  -2  -2  215.00   11.58
 -20  -2   2  217.36   12.81
 -20  -2   2  236.91   38.39
 -20  -2   2  199.70   11.36
  20  -2  -2  215.88   25.25
 -20   2   2  196.48   28.96
  20   2  -2  218.79   35.23
  20   2  -2  199.95   12.71
  20   2  -2  203.31   10.88
  20   2  -2  224.61   15.47
  18  -2  -2  361.16   17.24
 -18  -2   2  352.58   18.93
 -18  -2   2  438.75   44.00
  18  -2  -2  391.05   32.28
 -18  -2   2  331.99   17.27
  18   2  -2  339.70   20.52
 -18   2   2  308.90   33.11
  18   2  -2  348.59   18.39
  18   2  -2  353.54   37.28
  18   2  -2  342.28   16.55
  16  -2  -2  455.31   35.47
 -16  -2   2  476.01   22.67
 -16  -2   2  457.96   24.14
  16  -2  -2  465.88   22.25
  16   2  -2  511.67   23.68
  16   2  -2  486.73   42.19
  16   2  -2  494.62   21.78
 -16   2   2  474.23   38.58
  16   2  -2  483.14   25.46
 -14  -2   2  627.42   29.75
  14  -2  -2  616.79   27.46
  14  -2  -2  573.33   28.42
  14  -2  -2  587.02   40.19
 -14  -2   2  607.32   27.79
  14   2  -2  630.23   30.18
  14   2  -2  608.31   28.35
 -14   2   2  655.80   43.68
  14   2  -2  592.00   26.74
  14   2  -2  625.82   47.18
  12  -2  -2 1057.81   60.32
 -12  -2   2 1058.21   67.19
  12   2  -2 1137.85   67.46
 -12   2   2 1149.62   63.45
  10  -2  -2 1641.94   84.65
 -10  -2   2 1689.67   91.44
 -10   2   2 1775.59   87.68
  10   2  -2 1725.91   90.73
  -8  -2   2 2440.87  124.61
   8  -2  -2 2652.09  121.11
  -8   2   2 2637.81  122.43
   8   2  -2 2579.01  124.94
   6  -2  -2 1700.08   82.69
  -6  -2   2 1764.13   86.25
   6   2  -2 1574.49   83.91
  -6   2   2 1568.80   82.63
   4  -2  -2 2374.47  112.84
  -4  -2   2 2439.69  114.13
   4   2  -2 2378.95  113.28
   2  -2  -2 7022.59  296.16
  -2  -2   2 6568.06  293.29
   2   2  -2 6650.64  293.30
  -2   2   2 7244.45  296.97
   0  -2  -2 8297.11  346.27
   0  -2   2 7854.75  340.87
   0   2   2 8453.25  346.54
   0   2  -2 7759.19  340.51
  -2  -2  -2 3834.01  171.80
   2  -2   2 3739.50  164.50
   2   2   2 3816.01  172.17
  -4  -2  -2 1874.48   95.10
   4  -2   2 1839.95   85.44
   4   2   2 1998.13   96.43
  -4   2  -2 1923.98   85.38
   6  -2   2 4266.34  175.15
  -6  -2  -2 4158.43  188.93
  -6   2  -2 4145.98  174.24
   6   2   2 3989.65  189.04
   8  -2   2 2130.60   90.42
  -8  -2  -2 2105.88  108.10
  -8   2  -2 2133.01   90.12
   8   2   2 2198.22  110.13
 -10  -2  -2 1940.62  103.38
  10   2   2 2036.42  106.64
 -12  -2  -2 1384.31   77.98
  12   2   2 1203.78   78.14
 -14  -2  -2  934.91   58.75
 -14  -2  -2  916.68   41.31
  14  -2   2  903.92   42.32
 -14  -2  -2  997.33   63.71
 -14  -2  -2 1018.12   44.20
  14   2   2  941.39   43.61
  14   2   2  993.31   45.76
  14   2   2  946.43   43.01
  16  -2   2  435.93   22.63
 -16  -2  -2  418.85   40.73
  16  -2   2  442.98   19.17
 -16  -2  -2  423.29   20.16
  16  -2   2  445.22   18.81
 -16  -2  -2  446.68   19.72
 -16  -2  -2  429.16   36.97
 -16  -2  -2  426.07   20.07
 -16  -2  -2  466.17   23.51
  16   2   2  459.64   23.33
 -16   2  -2  463.71   22.56
  16   2   2  438.24   22.47
  16   2   2  462.72   25.34
  18  -2   2  221.81   13.82
 -18  -2  -2  215.13   26.96
 -18  -2  -2  219.42   11.06
 -18  -2  -2  206.41    9.99
 -18  -2  -2  234.75   14.11
  18  -2   2  232.34   10.03
  18  -2   2  213.15   10.56
 -18  -2  -2  184.74   31.59
 -18  -2  -2  214.38    9.81
 -18   2  -2  206.79   13.00
  18   2   2  197.82   13.51
  18   2   2  189.75   12.81
  18   2   2  219.50   15.82
  20  -2   2  274.07   16.77
 -20  -2  -2  259.99   13.33
  20  -2   2  266.83   12.48
 -20  -2  -2  285.59   37.34
  20  -2   2  263.15   13.24
 -20  -2  -2  256.45   33.42
  20   2   2  259.26   18.51
  20   2   2  261.77   16.48
 -20   2  -2  254.71   15.61
  20   2   2  277.98   16.02
 -22  -2  -2  146.95   31.57
 -22  -2  -2  178.88   30.65
  22  -2   2  171.83    9.01
  22  -2   2  149.83    9.54
  22  -2   2  169.36   13.01
  22   2   2  183.41   15.19
  22   2   2  172.77   12.14
 -22   2  -2  174.28   12.04
  22   2   2  168.58   12.66
  24  -2   2   89.45    9.50
 -24  -2  -2   34.07   23.63
 -24  -2  -2   38.82   25.75
  24  -2   2   90.63    5.92
  24   2   2   81.04    8.18
 -24   2  -2   77.50    7.89
  24   2   2   68.69   11.48
  26  -2   2   44.51    4.41
 -26  -2  -2   58.77   28.79
  26  -2   2   50.45    9.34
 -26  -2  -2   51.16   26.72
  26   2   2   53.90    8.18
  26   2   2   38.72    9.02
 -28  -2  -2   -8.05   30.12
  28  -2   2   39.72    5.36
  28  -2   2   36.55    8.58
  28   2   2   18.45    6.96
  28   2   2   29.38    6.41
  30  -2   2   25.47    7.28
 -30  -2  -2   49.81   36.55
  30  -2   2   22.27    4.42
  30   2   2   33.54    7.19
  30   2   2    7.11    5.30
  32  -2   2    9.62    5.58
  32  -2   2   14.23    4.00
 -32  -2  -2  -14.77   41.22
  32   2   2   15.63    6.86
  32   2   2   13.71    5.22
  34  -2   2    9.14    6.19
 -34  -2  -2   24.82   52.12
  34   2   2    4.24    5.82
  35  -3  -2   -0.21    3.88
  35  -3  -2    2.68    2.80
  35   3  -2   -2.14    3.69
  35   3  -2    1.14    3.90
  33  -3  -2    1.16    3.44
  33  -3  -2    1.64    2.52
  33   3  -2    0.99    4.62
  33   3  -2    3.17    3.59
 -31  -3   2  -48.16   56.07
  31  -3  -2   17.81    6.17
  31  -3  -2    3.63    2.62
  31   3  -2    2.11    3.30
  31   3  -2    2.97    4.37
  29  -3  -2   17.44    6.02
 -29  -3   2  -33.12   43.99
  29  -3  -2    9.86    2.99
  29   3  -2    8.89    4.45
  29   3  -2   14.01    6.22
 -29   3   2   22.91   19.82
 -27  -3   2   31.68   36.20
 -27  -3   2   15.98   38.09
  27  -3  -2   13.31    3.27
  27  -3  -2    6.54    3.94
 -27   3   2    7.40   21.50
 -27   3   2  -30.49   18.90
  27   3  -2   14.06    4.65
  27   3  -2   15.92    6.28
 -25  -3   2   58.18   34.91
  25  -3  -2   34.30    5.03
 -25  -3   2   -3.36   30.45
 -25  -3   2   27.50    4.52
  25  -3  -2   22.15    5.96
  25   3  -2   34.91    6.58
 -25   3   2   20.82   18.33
  25   3  -2   36.01    9.01
  25   3  -2   27.34    2.60
 -23  -3   2   56.19   30.44
 -23  -3   2   60.57    6.31
  23  -3  -2   47.42    4.88
  23  -3  -2   50.06    8.62
 -23  -3   2   52.95    5.07
  23  -3  -2   49.67   16.22
 -23  -3   2   22.65   28.83
  23   3  -2   54.71    7.96
  23   3  -2   55.02    9.89
 -23   3   2   50.84   19.05
  23   3  -2   55.43    3.79
 -21  -3   2   60.96    5.35
 -21  -3   2   54.11    7.45
  21  -3  -2   44.26   14.47
 -21  -3   2   53.93   30.18
 -21  -3   2   55.94   25.03
  21  -3  -2   55.62    4.94
 -21   3   2   57.99   19.03
  21   3  -2   39.03    7.82
  21   3  -2   53.41    3.78
  21   3  -2   57.73    6.45
  19  -3  -2   44.73   14.59
 -19  -3   2   53.18    5.07
 -19  -3   2   54.61    7.48
  19  -3  -2   48.38    4.57
 -19   3   2   43.93   16.93
  19   3  -2   49.01    3.54
  19   3  -2   54.73    7.64
  19   3  -2   67.17   10.08
 -17  -3   2   54.16    5.17
  17  -3  -2   59.52    4.84
 -17  -3   2   47.49    7.23
 -17  -3   2   33.53   16.53
  17  -3  -2   54.16   14.80
  17   3  -2   57.80    5.98
  17   3  -2   55.51    3.75
  17   3  -2   64.80    7.51
  17   3  -2   62.82   20.49
 -17   3   2   63.12   16.21
  15  -3  -2   84.39    6.05
  15  -3  -2   66.62   15.41
 -15  -3   2   89.87    8.06
 -15  -3   2   84.22    6.45
 -15  -3   2   85.84   21.32
  15   3  -2   95.96    7.42
  15   3  -2   80.07    8.07
  15   3  -2   91.43   21.71
  15   3  -2   94.05    5.11
 -15   3   2   94.70   19.14
 -13  -3   2   10.59   11.82
 -13  -3   2    7.91    3.18
  13  -3  -2    6.81    2.05
  13  -3  -2    2.92    6.63
 -13  -3   2   10.24    2.59
  13   3  -2   13.67   12.49
 -13   3   2   17.59   10.08
  13   3  -2   10.04    3.34
  13   3  -2   10.13    2.90
  11  -3  -2    9.57    7.08
 -11  -3   2   -3.93    8.56
  11  -3  -2   11.01    2.69
  11  -3  -2    9.37    2.27
 -11  -3   2   10.80    2.65
  11   3  -2   22.27    4.60
 -11   3   2   21.25    9.55
  11   3  -2   19.24    3.62
  11   3  -2   22.44   12.93
   9  -3  -2   57.66   13.36
   9  -3  -2   46.72    4.13
  -9  -3   2   40.70    3.99
  -9  -3   2   57.64   14.87
   9  -3  -2   58.92    4.87
  -9  -3   2   50.60    4.50
  -9   3   2   34.69   11.31
   9   3  -2   52.64    4.71
   9   3  -2   46.01    4.86
  -9   3   2   58.97    3.70
   9   3  -2   52.29   14.81
   7  -3  -2  347.25   16.85
  -7  -3   2  348.50   16.47
   7  -3  -2  325.11   16.34
  -7  -3   2  363.89   30.78
   7  -3  -2  338.52   27.95
  -7  -3   2  349.74   16.43
  -7   3   2  323.97   27.91
   7   3  -2  290.97   28.23
   7   3  -2  324.29   16.56
  -7   3   2  340.58   15.94
   7   3  -2  324.96   16.96
  -5  -3   2   20.39    8.81
   5  -3  -2   11.93    2.59
  -5  -3   2   18.07    2.94
   5  -3  -2   11.65    7.42
  -5  -3   2   16.90    2.67
  -5   3   2   16.05    2.79
   5   3  -2   19.78    3.26
  -5   3   2    8.92    8.19
   5   3  -2   24.80    9.16
   5   3  -2   18.04    2.96
   3  -3  -2  505.53   36.46
   3  -3  -2  508.02   23.93
   3  -3  -2  484.81   23.61
  -3  -3   2  498.13   22.96
  -3  -3   2  499.99   35.56
  -3   3   2  523.92   23.71
   3   3  -2  542.15   36.26
  -3   3   2  543.21   37.11
   1  -3  -2  319.87   27.47
  -1  -3   2  378.84   26.46
   1  -3  -2  272.01   15.22
  -1  -3   2  310.43   14.25
  -1  -3   2  305.53   13.61
   1  -3  -2  336.99   15.55
   1   3  -2  273.08   13.93
   1   3  -2  291.78   14.38
  -1   3   2  291.85   15.17
   1   3  -2  288.62   24.06
   1   3  -2  293.28   14.12
  -1   3   2  249.71   25.26
  -1   3   2  318.90   15.53
   1  -3   2  142.91    7.08
   1  -3   2  140.12   14.74
  -1  -3  -2  148.70   18.65
   1  -3   2  144.91    6.45
   1  -3   2  141.86    7.38
  -1  -3  -2  139.71    8.73
  -1  -3  -2  144.16    8.48
   1   3   2  119.37   19.52
  -1   3  -2  116.69    7.21
   1   3   2  115.12    8.00
  -1   3  -2  120.85   13.98
  -1   3  -2  114.14    6.96
   1   3   2  118.71    8.15
  -1   3  -2  118.45    6.32
   3  -3   2   27.18    2.89
   3  -3   2   27.73    7.50
  -3  -3  -2   26.05    4.23
  -3  -3  -2   22.47    9.64
   3  -3   2   28.51    2.49
  -3  -3  -2   41.30    5.73
   3  -3   2   32.21    2.22
   3   3   2   62.14   15.25
   3   3   2   44.30    4.51
   3   3   2   46.40    4.35
  -3   3  -2   43.78    3.57
  -3   3  -2   51.20    9.85
  -5  -3  -2  125.02    8.18
   5  -3   2   99.79   11.23
  -5  -3  -2  137.47    8.17
   5  -3   2  125.85    6.16
   5  -3   2  130.02    7.42
  -5  -3  -2  131.12    8.99
  -5  -3  -2  144.35   22.64
  -5   3  -2  113.98    7.39
   5   3   2  108.92    8.49
   5   3   2  115.97    8.17
  -5   3  -2  100.54   11.06
   5   3   2   88.55   19.33
   7  -3   2   25.57    3.01
  -7  -3  -2   32.47    4.73
   7  -3   2   25.73    5.82
  -7  -3  -2   37.96    5.76
  -7  -3  -2    5.39    9.97
  -7  -3  -2   29.12    4.24
   7  -3   2   24.32    1.88
   7   3   2   29.53   13.51
   7   3   2   41.13    6.06
  -7   3  -2   36.28    3.60
   7   3   2   40.63    5.37
  -9  -3  -2  115.01    7.63
  -9  -3  -2  110.56    6.88
   9  -3   2   97.37    6.66
  -9  -3  -2  110.86    8.25
  -9  -3  -2  116.31   23.16
   9   3   2   87.63   20.01
   9   3   2   83.80    7.93
   9   3   2   87.39    7.33
  -9   3  -2   77.16    6.45
  11  -3   2  115.32    6.94
 -11  -3  -2  106.98    7.85
 -11  -3  -2  103.72    5.61
 -11  -3  -2  123.73    9.10
 -11  -3  -2  104.87    7.11
 -11  -3  -2  147.24   26.95
  11   3   2  125.79   10.01
 -11   3  -2  106.28    7.81
  11   3   2  133.97    9.17
  11   3   2  107.58   24.33
 -13  -3  -2   14.24    3.37
 -13  -3  -2   10.75    1.51
 -13  -3  -2   16.92    2.97
  13  -3   2   15.56    3.13
 -13  -3  -2    9.93    3.39
 -13  -3  -2    8.79   10.83
 -13   3  -2    6.17    2.51
  13   3   2    4.17    2.33
  13   3   2    4.78    2.92
  13   3   2    9.13    3.02
 -15  -3  -2   48.34    3.23
 -15  -3  -2   54.74    6.22
 -15  -3  -2   61.71   18.70
 -15  -3  -2   49.81    4.28
 -15  -3  -2   38.56   21.20
 -15  -3  -2   46.57    4.91
  15  -3   2   53.07    5.13
  15   3   2   54.29    7.77
  15   3   2   54.60    7.51
 -15   3  -2   59.07    5.83
  15   3   2   57.99    9.65
 -17  -3  -2   86.67    7.67
 -17  -3  -2   76.57    5.36
 -17  -3  -2   50.95   19.01
 -17  -3  -2   72.76    4.45
  17  -3   2   80.41    6.95
 -17  -3  -2   77.76    6.16
 -17  -3  -2   92.75   21.97
  17   3   2   77.57   11.39
 -17   3  -2   72.35    6.98
  17   3   2   76.45    7.51
  17   3   2   76.77    7.40
  19  -3   2   16.36    4.17
 -19  -3  -2   11.17   14.57
 -19  -3  -2   19.32    2.84
  19  -3   2   14.33    1.50
 -19  -3  -2   14.91    3.02
  19  -3   2   12.56    1.19
 -19  -3  -2    6.40   16.93
  19   3   2    7.74    3.66
  19   3   2   14.69    5.48
 -19   3  -2   13.77    3.81
  19   3   2   21.01    4.83
 -21  -3  -2   11.59   16.84
 -21  -3  -2   12.54    1.96
  21  -3   2   10.06    1.56
  21  -3   2   17.66    2.43
  21  -3   2    9.58    3.50
 -21  -3  -2   44.57   25.24
 -21  -3  -2   12.06    2.33
  21   3   2    4.75    3.92
 -21   3  -2    4.10    2.75
  21   3   2    3.25    3.05
  23  -3   2   14.75    4.66
 -23  -3  -2   27.19   19.60
  23  -3   2   20.86    2.62
 -23  -3  -2   17.69   23.39
  23   3   2   19.37    6.58
 -23   3  -2   17.57    4.77
  23   3   2   27.65    5.96
  25  -3   2   16.03    2.62
 -25  -3  -2   11.49   26.09
 -25  -3  -2   10.57   24.62
  25  -3   2   13.38    4.90
  25   3   2   21.08    5.65
  25   3   2   12.03    5.67
 -25   3  -2   18.55    5.10
 -27  -3  -2   -0.63   34.41
  27  -3   2   19.05    3.04
 -27  -3  -2   10.39   33.92
  27  -3   2    5.62    3.79
  27   3   2   17.27    5.39
  27   3   2   14.38    6.15
 -29  -3  -2    5.50   40.15
  29  -3   2   12.06    2.87
  29  -3   2    9.05    4.99
  29   3   2   15.94    5.60
  29   3   2    4.35    5.10
  31  -3   2    6.86    4.73
 -31  -3  -2   -5.14   44.68
  31  -3   2    6.93    2.74
  31   3   2   -0.80    3.56
  33  -3   2    1.48    3.90
  33   3   2   -0.65    4.21
  34  -4  -2    6.27    5.16
  34  -4  -2    3.21    4.22
  34   4  -2    3.39    5.71
  34   4  -2    8.23    5.69
  32  -4  -2    7.87    3.06
  32  -4  -2   10.29    5.76
  32   4  -2   13.27    6.49
  32   4  -2    2.24    4.04
 -30  -4   2  -51.99   58.02
  30  -4  -2   13.93    5.29
  30  -4  -2    6.82    2.84
  30   4  -2    3.10    3.80
  30   4  -2   17.61    6.58
 -28  -4   2  -19.79   41.29
 -28  -4   2    0.61    1.04
 -28  -4   2    0.41    1.01
  28   4  -2   31.33    8.91
 -26  -4   2    8.42   33.81
  26  -4  -2   42.77    5.64
  26  -4  -2   40.49    8.58
 -26  -4   2   45.11   46.23
 -26  -4   2   42.69    6.27
 -26   4   2   49.77   16.85
  26   4  -2   42.10    9.66
  26   4  -2   53.59    9.24
  24  -4  -2   82.77   16.91
 -24  -4   2  126.94   44.84
  24  -4  -2   92.57    6.93
 -24  -4   2  108.71    9.09
 -24  -4   2   88.44    7.26
  24  -4  -2   92.38    9.73
 -24  -4   2    0.65   26.54
  24   4  -2   92.42    9.48
 -24   4   2   53.47   18.58
  24   4  -2  106.30   14.93
  22  -4  -2  113.43   18.45
 -22  -4   2  111.31    8.53
 -22  -4   2  139.85   40.75
  22  -4  -2  109.69    7.80
 -22  -4   2  123.66   10.54
 -22   4   2   99.88   20.27
  22   4  -2  119.54   10.44
  22   4  -2  133.90   12.73
 -20  -4   2  190.03   45.40
 -20  -4   2  157.94   33.84
  20  -4  -2  158.16   22.08
 -20  -4   2  145.91   11.94
 -20  -4   2  155.83   10.20
  20  -4  -2  160.80    9.57
  20   4  -2  152.27   13.42
 -20   4   2  183.18   25.79
  20   4  -2  132.51   11.23
 -18  -4   2  344.09   18.43
  18  -4  -2  355.19   17.62
 -18  -4   2  409.73   46.32
 -18  -4   2  336.56   20.67
  18  -4  -2  374.82   31.00
 -18   4   2  352.20   33.34
  18   4  -2  340.61   19.83
  18   4  -2  335.24   21.66
  16  -4  -2  340.79   17.00
 -16  -4   2  345.51   20.29
 -16  -4   2  326.31   40.24
  16  -4  -2  318.00   29.12
 -16  -4   2  328.37   17.68
  16   4  -2  338.23   20.64
  16   4  -2  336.67   18.96
  16   4  -2  329.37   14.39
 -16   4   2  377.35   32.71
 -14  -4   2  511.46   24.79
 -14  -4   2  527.88   25.84
 -14  -4   2  506.67   47.26
 -14  -4   2  523.09   27.48
  14  -4  -2  512.39   24.12
  14  -4  -2  517.91   37.78
  14   4  -2  479.93   44.59
 -14   4   2  470.74   38.34
  14   4  -2  491.50   21.65
  14   4  -2  536.63   26.02
  12  -4  -2  854.08   38.39
 -12  -4   2  863.81   41.63
 -12  -4   2  868.61   38.90
  12  -4  -2  788.96   52.07
 -12  -4   2  905.74   39.79
 -12  -4   2  891.55   62.81
  12   4  -2  892.04   41.30
  12   4  -2  865.77   39.90
  12   4  -2  853.62   61.79
 -12   4   2  789.21   52.95
 -10  -4   2  944.78   62.73
 -10  -4   2  922.06   40.36
  10  -4  -2  811.72   53.47
  10  -4  -2  923.68   39.75
 -10  -4   2  912.16   39.91
  10   4  -2  867.25   41.47
  10   4  -2  834.30   60.12
 -10   4   2  860.06   54.92
   8  -4  -2  981.24   60.19
  -8  -4   2 1050.33   66.14
   8  -4  -2 1052.60   45.22
   8   4  -2  841.55   61.83
  -8   4   2 1070.68   61.88
  -8   4   2 1029.90   43.48
   6  -4  -2 1549.96   83.24
  -6  -4   2 1484.82   84.55
   6   4  -2 1496.59   84.78
  -6   4   2 1537.23   82.93
   4  -4  -2 2744.19  135.64
  -4  -4   2 2869.71  136.21
   4   4  -2 2732.54  135.43
  -2  -4   2 2779.21  127.68
   2  -4  -2 2714.02  130.60
  -2   4   2 2514.31  129.66
   2   4  -2 2460.28  125.70
   0  -4   2 1652.40   83.77
   0  -4  -2 1660.18   89.85
   0   4   2 1562.80   89.22
   0   4  -2 1599.71   83.35
   2  -4   2 1789.94   90.11
  -2  -4  -2 1810.99   99.02
   2   4   2 1828.85  100.68
  -2   4  -2 1900.37   90.93
   4  -4   2 2436.06  109.14
  -4  -4  -2 2137.14  120.16
   4   4   2 2394.77  124.11
   6  -4   2 1537.23   77.35
  -6  -4  -2 1544.52   90.17
   6  -4   2 1521.33   73.44
   6   4   2 1484.18   90.43
  -8  -4  -2 1317.87   58.20
   8  -4   2 1293.61   61.73
   8  -4   2 1315.75   63.77
  -8  -4  -2 1242.29   58.72
  -8  -4  -2 1314.56   82.21
   8   4   2 1215.30   82.86
   8   4   2 1400.65   58.99
 -10  -4  -2 1068.48   48.37
 -10  -4  -2 1038.73   49.11
  10  -4   2 1080.55   47.04
 -10  -4  -2 1089.91   47.22
 -10  -4  -2 1106.22   73.60
  10  -4   2 1036.70   47.10
  10   4   2 1059.51   49.00
  10   4   2 1028.27   50.17
  10   4   2 1045.22   75.64
 -12  -4  -2  696.15   32.63
 -12  -4  -2  705.29   56.92
 -12  -4  -2  688.69   27.92
 -12  -4  -2  659.32   31.04
 -12  -4  -2  704.59   33.69
  12   4   2  651.79   33.23
  12   4   2  627.42   34.48
 -12   4  -2  641.37   31.90
  14  -4   2  712.85   31.09
 -14  -4  -2  691.44   32.76
 -14  -4  -2  681.81   33.96
 -14  -4  -2  616.63   30.83
 -14  -4  -2  705.13   58.45
 -14  -4  -2  669.36   52.90
  14   4   2  588.73   34.81
 -14   4  -2  710.18   32.91
  14   4   2  694.15   34.14
 -16  -4  -2  477.50   23.41
 -16  -4  -2  526.76   28.84
  16  -4   2  555.12   24.51
 -16  -4  -2  512.46   25.21
 -16  -4  -2  466.36   49.26
 -16   4  -2  475.74   25.31
  16   4   2  445.21   26.27
  16   4   2  446.31   28.01
  16   4   2  459.93   26.00
  18  -4   2  321.93   17.44
 -18  -4  -2  343.74   43.03
 -18  -4  -2  254.40   39.12
 -18  -4  -2  280.11   15.67
 -18  -4  -2  310.18   17.38
 -18   4  -2  324.73   18.57
  18   4   2  306.40   21.37
  18   4   2  305.59   19.07
  18   4   2  372.13   27.79
 -20  -4  -2   98.11    7.75
 -20  -4  -2   91.54    6.69
  20  -4   2  109.05    8.79
 -20  -4  -2  100.38   30.17
 -20  -4  -2  103.43   27.90
 -20   4  -2   96.01    9.07
  20   4   2   96.71   11.39
  20   4   2  101.04    9.67
 -22  -4  -2   99.00   29.73
 -22  -4  -2  148.37    8.75
 -22  -4  -2  102.22   35.97
  22  -4   2  160.50   11.88
 -22  -4  -2  148.86    9.53
  22   4   2  140.34   14.38
  22   4   2  156.29   12.98
 -22   4  -2  149.04   12.02
 -24  -4  -2   20.08   27.42
 -24  -4  -2   58.67   33.72
 -24  -4  -2   83.98    5.78
  24  -4   2   94.25    9.25
  24   4   2  105.88   10.45
  24   4   2   81.12   13.34
 -24   4  -2   79.75    8.96
 -26  -4  -2  -14.83   30.50
  26  -4   2   44.44    7.94
 -26  -4  -2  -25.08   32.66
  26   4   2   46.32    8.86
  26   4   2   59.49   11.71
  28  -4   2   29.08    6.96
 -28  -4  -2  -49.17   38.02
  28   4   2   26.43    8.56
 -30  -4  -2   -7.85   51.14
  30  -4   2   15.47    2.96
  30  -4   2   14.42    5.22
  30   4   2   14.06    7.38
  32  -4   2    6.59    5.21
  32   4   2    5.40    6.11
  34  -4   2    2.84    4.16
  34   4   2   18.25    7.40
  33  -5  -2    1.13    3.78
  33   5  -2    0.84    4.75
  33   5  -2   -0.31    3.84
  31  -5  -2    4.56    4.43
  31  -5  -2   13.20    3.42
 -31  -5   2    0.03    1.63
  31   5  -2    9.58    4.78
  31   5  -2   -2.05    3.30
 -29  -5   2   21.44   63.43
  29  -5  -2    2.78    3.51
  29  -5  -2   12.42    3.33
 -29  -5   2   -0.18    1.14
  29   5  -2    1.86    3.93
  29   5  -2    2.04    4.47
  27  -5  -2    3.47    2.40
 -27  -5   2    9.90    4.03
 -27  -5   2  -14.02   48.90
  27  -5  -2    1.32    3.09
 -27  -5   2   -0.27    1.20
  27   5  -2    7.57    4.62
  27   5  -2    4.86    4.75
 -25  -5   2    5.35    2.95
 -25  -5   2   12.89    4.35
  25  -5  -2    7.20    2.74
 -25  -5   2   97.39   52.08
 -25  -5   2   11.97   60.84
  25   5  -2    0.69    3.16
 -25   5   2    2.83   10.75
  25   5  -2   12.25    5.44
 -23  -5   2   28.10    6.13
 -23  -5   2   37.06   40.31
  23  -5  -2   34.40   12.79
  23  -5  -2   36.07    5.14
 -23  -5   2   45.14    6.22
 -23  -5   2   -2.16   28.68
  23   5  -2   29.59    8.02
 -23   5   2   27.12   14.83
  23   5  -2   28.46    6.80
  21  -5  -2   10.89    2.99
 -21  -5   2    5.30   34.65
 -21  -5   2   17.93    4.08
 -21  -5   2   17.16   26.02
  21  -5  -2   25.53   12.61
 -21  -5   2   18.94    5.18
 -21   5   2   25.34   14.48
  21   5  -2    3.33    3.16
  21   5  -2    7.61    4.54
 -19  -5   2   -7.14   19.75
 -19  -5   2   -4.28   28.91
  19  -5  -2   11.09    2.79
 -19  -5   2   10.82    3.26
 -19  -5   2   13.87    5.14
  19  -5  -2   16.01   12.24
  19   5  -2    3.29    2.94
 -19   5   2   19.31   14.57
  19   5  -2    4.81    3.69
  17  -5  -2   52.45   16.66
 -17  -5   2   77.69    6.72
  17  -5  -2   73.13    6.16
 -17  -5   2   85.42   11.36
 -17  -5   2  116.61   37.99
 -17  -5   2   67.12   25.30
 -17   5   2   75.02   18.24
  17   5  -2   57.88    9.71
  17   5  -2   82.52    8.28
  15  -5  -2   45.59   15.16
 -15  -5   2   31.51   21.21
 -15  -5   2   52.97    5.95
 -15  -5   2   20.37   17.40
 -15  -5   2   44.94    5.00
 -15  -5   2   50.12    8.34
  15  -5  -2   44.32    4.69
  15   5  -2   39.91    7.39
  15   5  -2   51.57    7.62
 -15   5   2   42.44   15.28
 -13  -5   2    1.08    2.24
 -13  -5   2    4.01    2.32
 -13  -5   2   15.49   16.39
  13  -5  -2    3.22    1.94
 -13  -5   2    4.52    2.33
  13  -5  -2   17.47   11.35
  13   5  -2    0.96    1.99
  13   5  -2    3.26    2.67
 -13   5   2   -9.04    9.85
  11  -5  -2   41.65    4.56
 -11  -5   2   41.10    4.58
 -11  -5   2   51.38    8.63
 -11  -5   2   44.82    4.85
  11  -5  -2   21.32   13.62
 -11  -5   2   57.22   19.91
  11   5  -2   45.03    6.62
  11   5  -2   48.67    7.62
 -11   5   2   22.73   13.30
  11   5  -2   38.69    2.66
   9  -5  -2   52.93   15.17
   9  -5  -2   55.38    5.14
  -9  -5   2   68.95   19.25
  -9  -5   2   46.93    4.94
  -9  -5   2   55.25    8.28
   9  -5  -2   55.02    5.54
  -9  -5   2   51.67    4.89
   9   5  -2   51.32    5.63
   9   5  -2   48.29    7.28
  -9   5   2   73.02   18.13
   9   5  -2   46.61    3.33
  -7  -5   2  125.26    8.37
   7  -5  -2  146.69   24.66
   7  -5  -2  115.88    8.57
   7  -5  -2  131.12    9.23
  -7  -5   2  122.74    8.40
  -7  -5   2  181.08   28.44
   7  -5  -2  130.37    8.82
   7   5  -2  138.39    9.86
  -7   5   2  152.33   25.12
   7   5  -2  134.22    7.11
   7   5  -2  118.19   23.55
   7   5  -2  125.12    9.18
  -7   5   2  130.55    7.97
  -5  -5   2  106.50    7.29
  -5  -5   2  137.36   23.95
   5  -5  -2  115.17    8.09
  -5  -5   2  109.17    7.29
   5  -5  -2  104.87    8.04
   5  -5  -2  114.34   22.40
   5  -5  -2  113.55    7.61
   5   5  -2   93.78   20.71
  -5   5   2   99.11   21.42
   5   5  -2  106.13    8.04
  -5   5   2  100.13    7.21
   5   5  -2   93.22    7.78
   5   5  -2   95.67    6.14
   3  -5  -2   98.54    8.09
   3  -5  -2   91.41    6.98
  -3  -5   2   91.41    6.96
   3  -5  -2   98.75   21.77
   3  -5  -2  106.33    8.11
  -3  -5   2  101.25    7.01
  -3  -5   2  144.52   23.48
  -3   5   2  145.90    8.64
   3   5  -2  121.45    8.17
   3   5  -2  123.49    6.96
  -3   5   2  132.76   25.11
   3   5  -2  120.90    8.30
   1  -5  -2  231.85   13.22
   1  -5  -2  204.26   26.74
   1  -5  -2  203.56   11.40
  -1  -5   2  203.75   11.41
  -1  -5   2  199.96   10.94
   1  -5  -2  210.98   13.13
  -1  -5   2  204.20   11.19
  -1  -5   2  196.08   22.40
   1   5  -2  220.68   12.36
  -1   5   2  231.87   12.87
   1   5  -2  201.11   11.14
   1   5  -2  209.80   11.70
  -1   5   2  202.80   12.78
  -1   5   2  220.28   28.18
  -1  -5  -2   51.98    5.82
  -1  -5  -2   59.90   17.06
   1  -5   2   53.54    4.28
   1  -5   2   54.97    4.35
   1  -5   2   55.36   17.00
   1  -5   2   50.70   12.86
  -1  -5  -2   56.93    4.34
   1  -5   2   50.10    4.27
  -1  -5  -2   61.45    5.80
   1   5   2   31.13   15.40
   1   5   2   36.18    5.98
  -1   5  -2   37.38    3.72
   1   5   2   50.21    6.72
  -1   5  -2   34.76    3.91
  -3  -5  -2  104.98    6.51
   3  -5   2   83.56   19.81
   3  -5   2  116.80   18.45
   3  -5   2  100.47    6.97
   3  -5   2  103.73    6.62
  -3  -5  -2  108.90    8.91
   3  -5   2  101.18    6.69
  -3  -5  -2  100.55    8.32
  -3  -5  -2   85.76   21.31
   3   5   2  120.02   25.51
   3   5   2  122.22    9.20
  -3   5  -2  115.07    7.53
   3   5   2  130.49    9.06
   5  -5   2  188.49   19.61
   5  -5   2  195.03   23.37
  -5  -5  -2  187.90   13.29
  -5  -5  -2  205.12   33.70
   5  -5   2  210.62   10.78
   5  -5   2  209.28   10.65
  -5  -5  -2  201.67   10.23
   5  -5   2  193.12   11.33
  -5  -5  -2  202.14   13.09
  -5  -5  -2  195.95   12.39
  -5   5  -2  210.57   11.96
   5   5   2  203.64   13.71
   5   5   2  222.63   36.08
   5   5   2  199.20   12.95
   7  -5   2  105.16    6.41
  -7  -5  -2  115.93    6.00
   7  -5   2  109.17   14.08
   7  -5   2  109.82   17.57
  -7  -5  -2  116.24    9.46
   7  -5   2  102.22    6.41
  -7  -5  -2   97.10    8.43
  -7  -5  -2  101.07    8.04
  -7  -5  -2  100.17   24.07
   7   5   2  111.67    8.94
   7   5   2   76.62   24.34
   7   5   2   95.70    9.17
  -7   5  -2   92.81    7.53
  -9  -5  -2   47.54    6.98
   9  -5   2   51.61    4.28
  -9  -5  -2   52.59    6.25
  -9  -5  -2   52.14    3.36
   9  -5   2   57.00    9.99
   9  -5   2   58.62   11.53
  -9  -5  -2   29.12   18.27
  -9  -5  -2   48.31    5.18
   9   5   2   93.64   26.93
   9   5   2   68.31    6.82
   9   5   2   65.78    9.28
  -9   5  -2   70.26    6.20
  11  -5   2   33.74    6.66
 -11  -5  -2   38.85    6.80
 -11  -5  -2   34.14    2.04
 -11  -5  -2   36.02   19.15
 -11  -5  -2   30.52    5.94
  11  -5   2   24.94    7.06
 -11  -5  -2   34.56    5.18
  11   5   2   27.58    6.32
  11   5   2   16.42   20.07
 -11   5  -2   35.15    5.50
  11   5   2   39.63    6.70
 -13  -5  -2   65.74    9.12
 -13  -5  -2   36.54   18.45
 -13  -5  -2   83.44   22.59
 -13  -5  -2   45.64    7.08
 -13  -5  -2   51.80    6.57
  13   5   2   42.16    8.25
  13   5   2   47.11    8.04
 -13   5  -2   40.77    6.38
 -15  -5  -2   35.40    6.45
 -15  -5  -2   51.27    5.19
 -15  -5  -2   42.42   23.58
 -15  -5  -2   32.73   18.06
 -15   5  -2   54.46    7.78
  15   5   2   68.95   11.12
  15   5   2   43.23    8.37
 -17  -5  -2   43.12   21.84
 -17  -5  -2   88.04   30.02
 -17  -5  -2   66.25    8.67
 -17  -5  -2   62.99    5.95
  17  -5   2   64.44    6.03
  17   5   2   60.07   10.25
 -17   5  -2   69.43    7.47
 -19  -5  -2   30.03   26.88
 -19  -5  -2   16.52   19.10
 -19  -5  -2   26.98    4.42
  19  -5   2   18.42    4.26
 -19  -5  -2   23.92    5.29
  19   5   2   12.63    5.50
 -19   5  -2   22.08    5.13
  21  -5   2   21.28    4.60
 -21  -5  -2   24.18    4.06
 -21  -5  -2   14.10    3.87
 -21  -5  -2  -11.86   28.00
 -21   5  -2   20.62    5.45
  21   5   2   17.77    6.51
 -23  -5  -2   36.35   31.49
 -23  -5  -2   19.04    4.39
 -23  -5  -2   13.18    2.96
 -23  -5  -2  -39.36   24.25
  23  -5   2   14.55    4.58
 -23   5  -2   22.37    5.83
  23   5   2   21.67    7.95
 -25  -5  -2   25.51    4.39
 -25  -5  -2   52.70   41.96
 -25  -5  -2  -24.33   31.77
  25  -5   2   25.45    6.04
  25   5   2   28.68    8.51
 -25   5  -2   22.11    6.07
  27  -5   2   10.57    4.40
 -27  -5  -2   30.29   44.20
  27  -5   2   11.02    1.67
  27   5   2   16.69    7.00
  29  -5   2    8.26    1.86
 -29  -5  -2  -46.25   56.09
  29  -5   2    1.95    3.12
  29   5   2    4.72    5.27
  31  -5   2    5.95    4.67
  31   5   2    7.63    5.20
  33  -5   2    5.03    4.35
  33   5   2   -0.93    4.15
  32  -6  -2    2.02    4.12
  32   6  -2    5.65    5.60
  32   6  -2    4.48    5.46
  30  -6  -2    8.03    2.88
 -30  -6   2    1.22    1.92
  30  -6  -2    2.14    3.62
  30   6  -2    2.87    4.55
  30   6  -2    6.22    5.81
 -28  -6   2   14.20    5.08
  28  -6  -2   17.72    5.76
 -28  -6   2   50.59   69.47
  28  -6  -2   21.66    4.21
  28   6  -2   29.76    9.04
  28   6  -2   22.20    6.98
  26  -6  -2   53.74    5.30
 -26  -6   2   36.62    7.35
 -26  -6   2    3.46   41.83
  26   6  -2   37.27    9.87
  26   6  -2   44.56    9.11
 -24  -6   2   56.26    9.52
  24  -6  -2   58.72    5.59
 -24  -6   2   56.83   47.45
 -24  -6   2   32.30   39.29
  24   6  -2   44.81   10.31
  24   6  -2   43.81    8.54
 -22  -6   2   29.90   40.68
 -22  -6   2  -51.52   30.26
  22  -6  -2   65.39    5.86
  22  -6  -2   30.96   14.29
 -22  -6   2   64.74   10.35
  22   6  -2   65.16   12.14
  22   6  -2   49.51    8.92
 -22   6   2   61.89   18.16
 -20  -6   2   81.21   11.29
  20  -6  -2   76.40    6.70
  20  -6  -2   90.92   18.55
 -20  -6   2   71.16   32.33
 -20  -6   2  142.18   47.41
  20   6  -2   83.30   11.44
 -20   6   2   47.35   18.05
  20   6  -2   96.01   14.17
  18  -6  -2  186.31   25.62
 -18  -6   2  268.08   47.80
  18  -6  -2  180.48   11.93
 -18  -6   2  214.04   16.13
 -18  -6   2  144.25   45.93
  18   6  -2  212.64   15.39
  18   6  -2  200.27   16.34
 -18   6   2  195.15   28.76
 -16  -6   2  329.15   21.21
  16  -6  -2  324.21   17.32
 -16  -6   2  262.31   44.26
 -16  -6   2  435.37   69.45
  16  -6  -2  394.41   34.82
  16   6  -2  279.78   20.52
 -16   6   2  358.63   35.25
  16   6  -2  291.68   19.44
 -14  -6   2  435.06   24.07
 -14  -6   2  479.38   62.50
  14  -6  -2  497.89   41.45
 -14  -6   2  453.00   23.57
 -14  -6   2  471.11   49.09
  14  -6  -2  455.65   23.22
 -14  -6   2  494.88   27.30
 -14   6   2  462.51   40.10
  14   6  -2  443.31   26.54
  14   6  -2  446.18   25.46
 -12  -6   2  633.71   31.20
 -12  -6   2  601.72   55.62
 -12  -6   2  575.90   66.74
  12  -6  -2  621.38   32.04
 -12  -6   2  638.94   31.70
  12  -6  -2  694.69   50.63
 -12  -6   2  625.56   34.41
  12  -6  -2  679.08   31.38
  12   6  -2  653.70   27.29
  12   6  -2  662.54   33.29
 -12   6   2  735.49   51.76
  12   6  -2  645.46   34.10
 -10  -6   2  609.74   54.18
  10  -6  -2  672.70   31.10
  10  -6  -2  617.28   49.10
 -10  -6   2  641.71   33.93
 -10  -6   2  629.96   30.65
  10  -6  -2  647.96   31.70
 -10  -6   2  709.57   69.78
 -10  -6   2  651.22   31.11
  10   6  -2  607.49   32.11
 -10   6   2  674.51   51.11
  10   6  -2  627.86   27.63
  10   6  -2  638.97   33.16
  -8  -6   2 1093.47   87.09
  -8  -6   2 1101.44   48.38
   8  -6  -2 1003.72   69.08
  -8  -6   2 1085.98   48.08
  -8  -6   2 1170.41   51.97
  -8  -6   2 1088.84   73.76
   8  -6  -2 1098.78   49.27
   8  -6  -2 1118.60   48.87
   8   6  -2  946.55   49.08
  -8   6   2 1132.22   72.16
   8   6  -2  963.29   49.61
  -6  -6   2  948.69   78.60
  -6  -6   2  929.68   67.12
  -6  -6   2  955.58   44.30
   6  -6  -2  881.79   64.44
   6  -6  -2  998.05   45.77
  -6  -6   2  955.73   44.37
   6  -6  -2 1019.48   45.59
   6   6  -2 1063.16   46.38
  -6   6   2 1011.26   68.19
   6   6  -2 1022.82   46.38
   4  -6  -2 1091.61   50.42
   4  -6  -2 1113.48   52.01
   4  -6  -2 1231.67   76.09
  -4  -6   2 1198.63   84.42
  -4  -6   2 1149.58   50.44
  -4  -6   2 1059.36   71.16
  -4  -6   2 1135.65   50.44
   4  -6  -2 1168.22   51.99
   4   6  -2 1154.34   52.01
  -4   6   2 1143.32   51.00
   4   6  -2 1136.51   51.69
  -2  -6   2 1308.83   55.94
  -2  -6   2 1336.79   78.07
   2  -6  -2 1260.59   81.17
   2  -6  -2 1294.23   58.06
  -2  -6   2 1403.10   90.08
  -2   6   2 1234.98   56.91
   2   6  -2 1244.79   56.36
  -2   6   2 1150.52   81.04
   0  -6  -2  838.39   37.40
   0  -6  -2  714.92   59.40
   0  -6   2  792.75   37.08
   0  -6  -2  866.06   40.06
   0  -6   2  828.50   37.66
   0  -6   2  896.36   65.93
   0  -6  -2  842.71   40.27
   0  -6   2  927.19   37.92
   0  -6   2  824.95   55.82
   0   6   2  804.71   39.57
   0   6   2  754.44   62.29
   0   6   2  817.40   39.34
   0   6  -2  853.59   37.76
  -2  -6  -2  813.66   40.13
   2  -6   2  863.54   55.30
  -2  -6  -2  841.23   40.78
   2  -6   2  781.97   37.42
  -2  -6  -2  855.13   37.29
   2  -6   2  831.15   61.32
   2  -6   2  842.83   37.75
   2  -6   2  766.54   37.45
  -2  -6  -2  869.49   64.90
   2   6   2  843.68   40.13
   2   6   2  922.83   68.27
  -2   6  -2  912.30   37.61
   2   6   2  851.71   40.51
   4  -6   2 1780.27   98.55
  -4  -6  -2 1815.37   76.50
  -4  -6  -2 1754.01   77.84
   4  -6   2 1709.69   90.96
  -4  -6  -2 1584.00  103.83
   4   6   2 1681.38   76.93
   4   6   2 1782.58  110.27
  -6  -6  -2  956.72   74.31
   6  -6   2 1023.00   58.20
  -6  -6  -2 1007.14   47.06
  -6  -6  -2 1024.62   45.92
   6  -6   2  958.08   43.40
   6  -6   2  909.81   61.35
   6  -6   2  984.68   43.48
  -6  -6  -2  996.90   47.50
   6   6   2  946.37   47.49
   6   6   2 1007.77   47.16
   6   6   2 1083.77   80.50
   8  -6   2  801.20   37.29
   8  -6   2  833.12   52.93
   8  -6   2  845.90   37.29
   8  -6   2  754.52   48.36
  -8  -6  -2  850.73   41.21
  -8  -6  -2  903.63   71.07
  -8  -6  -2  839.54   35.98
  -8  -6  -2  818.92   39.51
  -8  -6  -2  892.58   41.95
  -8   6  -2  843.51   39.46
   8   6   2  879.87   72.94
   8   6   2  888.59   42.72
   8   6   2  829.39   41.28
 -10  -6  -2  784.14   36.74
 -10  -6  -2  774.93   32.50
 -10  -6  -2  674.69   64.01
  10  -6   2  780.02   34.25
  10  -6   2  842.08   45.06
 -10  -6  -2  779.92   38.90
  10  -6   2  782.49   34.77
 -10  -6  -2  780.46   38.51
  10  -6   2  740.43   46.08
  10   6   2  723.39   38.48
  10   6   2  755.38   39.88
 -10   6  -2  749.24   36.85
  10   6   2  768.53   72.20
 -12  -6  -2  397.80   49.23
 -12  -6  -2  413.78   27.09
  12  -6   2  379.23   25.09
 -12  -6  -2  363.62   21.76
  12  -6   2  370.13   18.66
  12  -6   2  374.44   23.58
 -12  -6  -2  357.98   19.87
 -12   6  -2  379.67   20.96
  12   6   2  323.26   22.76
 -14  -6  -2  371.78   44.41
 -14  -6  -2  358.70   21.54
 -14  -6  -2  351.24   19.50
 -14  -6  -2  438.56   52.02
 -14   6  -2  383.06   21.11
  14   6   2  317.96   23.03
 -16  -6  -2  518.07   58.83
 -16  -6  -2  571.92   54.27
 -16  -6  -2  493.45   26.57
 -16  -6  -2  448.49   23.90
 -16   6  -2  448.92   25.72
  16   6   2  440.03   28.80
  18  -6   2  118.92    7.56
 -18  -6  -2  152.79   35.96
 -18  -6  -2  147.03   12.02
 -18  -6  -2  103.93   33.84
  18  -6   2  190.85   11.04
 -18  -6  -2  156.05   10.42
 -18   6  -2  171.95   12.86
  18   6   2  143.67   14.46
 -20  -6  -2   90.18    7.45
  20  -6   2   75.32    4.76
  20  -6   2   86.70    7.73
 -20  -6  -2   78.47    8.55
 -20  -6  -2  113.90   36.59
 -20  -6  -2   52.67   36.65
 -20   6  -2   82.48    9.16
  20   6   2  108.33   16.30
  22  -6   2  100.25    8.88
 -22  -6  -2   96.00    9.31
 -22  -6  -2   89.36    7.58
 -22  -6  -2    5.48   27.23
 -22  -6  -2  121.81   49.00
 -22   6  -2   95.17   10.27
  22   6   2   98.86   15.63
 -24  -6  -2   65.34   42.58
  24  -6   2   77.53    8.27
 -24  -6  -2   79.25    7.95
  24   6   2   90.56   15.35
 -24   6  -2   82.53   11.76
  26  -6   2   35.37    6.88
 -26  -6  -2   34.46    5.78
 -26  -6  -2   59.35   44.52
  26   6   2   28.55    8.82
 -28  -6  -2    4.39   51.28
  28  -6   2   21.76    5.71
  28   6   2   20.13    8.05
  30  -6   2    6.81    4.42
  30   6   2    2.81    5.55
  32  -6   2    0.17    3.45
  32   6   2    3.24    5.57
  31  -7  -2    3.56    4.35
 -31  -7   2   -0.51    1.72
  31   7  -2    0.19    4.02
  31   7  -2    9.46    7.17
  29  -7  -2    6.89    4.48
  29  -7  -2    7.97    3.08
 -29  -7   2    3.56    3.86
  29   7  -2    5.99    4.97
  29   7  -2   -3.62    3.78
 -27  -7   2  -96.97   57.03
 -27  -7   2    4.77    4.40
  27  -7  -2    3.22    2.54
  27   7  -2    6.90    5.89
  27   7  -2   19.99    6.86
  25  -7  -2   18.96    3.93
 -25  -7   2   93.17   68.11
 -25  -7   2   13.72    5.24
 -25  -7   2   11.82   48.02
  25   7  -2    9.48    6.34
  25   7  -2    9.20    5.46
 -23  -7   2 -110.97   37.52
 -23  -7   2   16.85    5.95
 -23  -7   2  -37.21   46.89
  23   7  -2   30.95    8.62
  23   7  -2   27.64    7.17
 -21  -7   2    5.82   44.15
 -21  -7   2   23.77    6.53
  21  -7  -2   20.07   15.77
 -21  -7   2   13.94   35.94
  21  -7  -2   17.53    3.81
  21   7  -2   24.08    7.14
 -21   7   2   23.47   18.91
  21   7  -2    8.83    4.93
 -19  -7   2    7.78   23.88
 -19  -7   2   20.92    6.13
  19  -7  -2   27.87   17.30
  19  -7  -2   18.60    4.21
 -19  -7   2   30.68   40.60
  19   7  -2   16.62    6.23
 -19   7   2   28.01   18.63
  19   7  -2    9.22    4.67
 -17  -7   2   57.41    9.95
  17  -7  -2   60.04    6.22
 -17  -7   2   43.95   38.80
 -17  -7   2   62.07   30.48
  17  -7  -2   54.18   18.72
  17   7  -2   60.07   10.62
 -17   7   2   77.66   23.65
  17   7  -2   59.98    9.89
  15  -7  -2   51.59   20.13
  15  -7  -2   45.09    6.62
 -15  -7   2   51.08   34.22
 -15  -7   2   36.83   28.36
 -15  -7   2   43.26    8.67
 -15   7   2   58.37   20.98
  15   7  -2   45.16    8.26
  15   7  -2   42.36    8.28
 -13  -7   2    0.18   30.84
  13  -7  -2   30.67   17.95
  13  -7  -2   35.83    5.97
 -13  -7   2   -9.96   13.68
 -13  -7   2   22.91    6.20
  13   7  -2   19.81    5.38
  13   7  -2   24.35    6.43
 -13   7   2    8.00   17.09
  11  -7  -2   79.45    7.30
 -11  -7   2   64.91    6.85
 -11  -7   2   50.25   24.67
  11  -7  -2   77.75   22.54
 -11  -7   2   59.16    9.63
  11  -7  -2   82.89    7.86
 -11  -7   2   54.71   26.65
  11   7  -2   72.07    8.56
  11   7  -2   73.96    8.10
 -11   7   2   77.16   23.74
  11   7  -2   77.75    4.53
   9  -7  -2  126.95   27.83
  -9  -7   2  106.13    8.64
  -9  -7   2  119.78   38.76
   9  -7  -2  101.20    8.82
  -9  -7   2  114.25   27.85
  -9  -7   2  113.63   11.00
   9  -7  -2  112.09    9.21
  -9   7   2  129.28   27.90
   9   7  -2  112.97   10.09
   9   7  -2  109.31    6.47
   9   7  -2  105.05   10.08
  -7  -7   2   45.55   21.34
  -7  -7   2   68.32    9.76
  -7  -7   2   67.14   26.41
  -7  -7   2   57.14    5.82
  -7  -7   2   54.96    5.73
   7  -7  -2   38.52   19.18
   7  -7  -2   63.12    8.72
   7  -7  -2   64.55    6.76
   7   7  -2   55.73    8.49
   7   7  -2   48.63    7.76
   7   7  -2   65.99    4.82
  -7   7   2   69.78   23.03
  -5  -7   2   29.18    6.56
  -5  -7   2   31.72   23.31
  -5  -7   2   35.88    5.35
   5  -7  -2   29.99    6.02
   5  -7  -2   37.21   18.40
  -5  -7   2   38.95    4.30
   5  -7  -2   38.17    6.33
  -5  -7   2   51.30   18.53
   5   7  -2   34.86    6.02
  -5   7   2   15.70   18.37
   5   7  -2   34.31    6.50
   5   7  -2   31.20    3.52
   3  -7  -2   54.60    7.83
   3  -7  -2   56.04   19.97
  -3  -7   2   47.68    5.13
  -3  -7   2   52.47    4.48
  -3  -7   2   50.55    5.10
  -3  -7   2   58.02   18.48
  -3  -7   2   75.00   27.22
   3  -7  -2   57.51    6.57
   3   7  -2   47.35    5.72
   3   7  -2   53.80    4.87
  -3   7   2   62.28   23.26
  -1  -7   2   27.88    4.15
  -1  -7   2   16.74   12.81
   1  -7  -2   18.25    3.26
   1  -7  -2   17.48    4.65
  -1  -7   2   18.74    4.02
   1  -7  -2   10.58   11.50
   1  -7  -2   16.00    4.44
  -1  -7   2   13.62   15.46
  -1  -7   2   18.05    3.59
   1   7  -2   27.12    4.40
  -1   7   2   35.76    6.58
  -1   7   2   18.99   16.76
   1   7  -2   31.77    4.98
   1  -7   2   14.95    3.27
  -1  -7  -2   18.40    4.82
  -1  -7  -2   18.74   18.21
  -1  -7  -2   26.09    3.81
   1  -7   2   16.09    3.33
   1  -7   2   29.41   14.81
   1  -7   2    2.28   14.92
  -1  -7  -2   27.19    5.45
  -1   7  -2    9.67    2.83
   1   7   2   18.08    4.76
   1   7   2   16.06   18.21
  -1   7  -2    9.39    2.69
   1   7   2   14.64    4.33
   3  -7   2   40.03    5.47
   3  -7   2   66.47   21.81
  -3  -7  -2   46.90   22.98
  -3  -7  -2   37.33    6.38
  -3  -7  -2   34.90    3.69
   3  -7   2   44.62   16.66
   3  -7   2   39.22    4.26
  -3  -7  -2   41.41    7.42
  -3  -7  -2   32.40    6.30
   3   7   2   34.61    6.50
   3   7   2   37.11    6.82
   3   7   2   72.07   27.79
  -3   7  -2   45.13    6.22
   5  -7   2   84.03   18.03
  -5  -7  -2   80.07    7.41
  -5  -7  -2   73.17    8.14
   5  -7   2   81.43    6.39
  -5  -7  -2   70.95    8.11
   5  -7   2   81.07    6.38
  -5  -7  -2   76.68    5.47
  -5  -7  -2   64.69   22.92
   5  -7   2  111.53   25.20
   5   7   2   69.59   29.16
   5   7   2   72.83    8.41
  -5   7  -2   74.28    6.92
   5   7   2   78.47    8.09
   7  -7   2   41.94    4.56
  -7  -7  -2   53.80    7.51
  -7  -7  -2    5.89   20.57
   7  -7   2   59.71   18.42
  -7  -7  -2   40.77    7.10
   7  -7   2   46.18    4.59
  -7  -7  -2   32.95    6.65
   7  -7   2   26.64   12.52
   7   7   2   62.18    9.36
   7   7   2   55.30   24.28
  -7   7  -2   39.54    6.24
   7   7   2   45.51    8.40
   9  -7   2    2.01    1.81
  -9  -7  -2    3.94    3.12
  -9  -7  -2    2.12    2.22
   9  -7   2    7.28   12.49
   9  -7   2   17.23   10.45
   9  -7   2    2.15    1.78
  -9  -7  -2    4.57   16.16
  -9  -7  -2    9.23    3.47
  -9  -7  -2    3.01    1.10
   9   7   2   33.78   22.93
  -9   7  -2    5.98    2.96
   9   7   2    1.73    2.88
  11  -7   2   30.00    4.77
 -11  -7  -2   22.37   23.81
  11  -7   2   24.53   10.23
  11  -7   2   24.39    3.84
  11  -7   2   23.21   12.87
 -11  -7  -2   21.29    1.77
 -11  -7  -2   33.11    7.00
  11   7   2   21.24    6.30
 -11   7  -2   19.97    4.93
 -13  -7  -2   30.18    6.99
 -13  -7  -2   28.73   21.88
  13  -7   2   32.45    9.75
  13  -7   2   38.06    5.32
  13  -7   2   25.54   11.11
 -13  -7  -2   31.07   24.77
 -13   7  -2   18.67    4.78
  13   7   2   40.15    8.61
  15  -7   2   31.86    4.63
 -15  -7  -2   36.22   20.67
  15  -7   2   36.19    5.56
 -15  -7  -2   26.74    6.46
 -15  -7  -2   20.95   28.93
  15   7   2   16.76    6.24
 -15   7  -2   27.01    6.01
 -17  -7  -2   20.01    5.52
 -17  -7  -2   13.02   29.29
  17  -7   2   10.17    2.59
 -17  -7  -2   33.25   27.43
 -17   7  -2   14.07    4.73
  17   7   2   20.14    6.77
  19  -7   2   14.55    3.90
 -19  -7  -2    0.90   27.85
 -19  -7  -2    9.94   34.08
 -19  -7  -2   18.13    5.35
  19  -7   2   20.33    3.29
 -19   7  -2   12.49    4.79
  19   7   2   17.93    6.63
  21  -7   2    9.32    2.25
 -21  -7  -2    4.98    4.03
  21  -7   2    6.22    2.98
 -21  -7  -2   -0.60   37.36
 -21  -7  -2  -17.52   30.18
 -21   7  -2    8.40    4.19
  21   7   2   11.33    6.28
 -23  -7  -2    8.92   37.15
 -23  -7  -2   11.70    4.69
  23  -7   2   25.11    5.56
 -23  -7  -2  -17.69   41.39
  23  -7   2   21.41    2.89
 -23   7  -2   10.21    5.18
  23   7   2   11.99    6.91
 -25  -7  -2   14.17    4.61
  25  -7   2   16.93    4.58
 -25  -7  -2  -12.73   50.65
  25  -7   2   13.14    1.93
  25   7   2    6.40    5.72
 -27  -7  -2    4.03    3.06
  27  -7   2    9.51    4.21
  27   7   2    1.52    4.42
  29  -7   2   10.07    4.40
  29   7   2    8.39    6.60
  31  -7   2    5.15    3.51
  31   7   2   -0.21    4.50
  30  -8  -2    9.51    4.70
 -30  -8   2   13.80    5.52
  30   8  -2    2.38    5.48
  30   8  -2    3.15    5.04
 -28  -8   2    4.67    4.54
  28  -8  -2   14.12    5.41
  28  -8  -2   16.05    4.30
  28   8  -2   15.25    6.40
  28   8  -2   25.60    8.57
 -26  -8   2  -41.48   66.39
  26  -8  -2   28.70    5.28
 -26  -8   2   16.64    5.83
  26   8  -2   32.16    8.73
  26   8  -2   10.08    6.27
 -24  -8   2   28.93    8.26
 -24  -8   2    0.41   54.06
  24  -8  -2   56.46    7.49
 -24  -8   2   61.42   63.32
  24   8  -2   47.51   10.53
  24   8  -2   45.29   10.27
 -22  -8   2   69.84   56.62
 -22  -8   2   60.54   11.04
  22  -8  -2   55.29    6.18
 -22  -8   2   -3.68   48.93
  22  -8  -2   34.98   12.44
  22  -8  -2   62.84   15.89
  22   8  -2   72.76   12.28
  22   8  -2   57.63   12.79
  20  -8  -2   71.69    7.24
 -20  -8   2  147.77   59.84
  20  -8  -2   88.81   22.85
 -20  -8   2  -11.14   39.18
  20   8  -2   64.00   12.36
 -20   8   2   44.97   24.08
  20   8  -2   75.05   12.37
  18  -8  -2  132.54   10.01
 -18  -8   2   81.82   47.75
 -18  -8   2   93.75   42.83
  18  -8  -2  150.15   29.65
 -18  -8   2  120.99   16.34
  18   8  -2  104.92   12.79
  18   8  -2  121.95   12.51
 -18   8   2   99.20   29.96
 -16  -8   2  225.87   57.22
 -16  -8   2  235.78   18.48
  16  -8  -2  221.12   14.45
  16  -8  -2  174.63   32.49
 -16  -8   2  236.13   53.11
 -16   8   2  231.81   37.86
  16   8  -2  208.25   17.61
  16   8  -2  209.05   16.95
 -14  -8   2  237.05   18.74
  14  -8  -2  244.53   15.64
 -14  -8   2  344.71   66.38
 -14  -8   2  211.59   47.43
  14  -8  -2  268.95   39.31
 -14   8   2  280.42   42.70
  14   8  -2  240.39   18.04
  14   8  -2  237.15   18.43
  12  -8  -2  294.28   17.48
 -12  -8   2  261.39   55.08
 -12  -8   2  292.85   20.69
  12  -8  -2  232.10   39.26
 -12  -8   2  289.90   48.29
  12   8  -2  301.20   20.18
 -12   8   2  184.60   36.97
  12   8  -2  279.72   19.47
 -10  -8   2  394.81   25.24
 -10  -8   2  394.26   21.91
 -10  -8   2  397.78   51.05
  10  -8  -2  393.77   46.34
 -10  -8   2  446.37   70.64
  10  -8  -2  407.64   22.66
  10   8  -2  374.26   23.81
 -10   8   2  422.69   47.75
  10   8  -2  409.41   24.63
   8  -8  -2  597.26   31.80
  -8  -8   2  599.31   30.50
   8  -8  -2  711.76   58.84
  -8  -8   2  578.84   33.71
  -8  -8   2  579.08   59.10
   8  -8  -2  657.54   32.06
  -8  -8   2  673.62   68.89
  -8   8   2  658.64   60.71
   8   8  -2  581.61   32.44
   8   8  -2  584.10   27.68
   8   8  -2  629.89   33.11
  -6  -8   2  789.64   76.05
   6  -8  -2  709.38   61.38
  -6  -8   2  606.41   59.58
   6  -8  -2  685.55   35.88
  -6  -8   2  697.69   34.29
  -6  -8   2  688.14   37.74
   6  -8  -2  745.08   36.18
   6   8  -2  715.04   32.29
   6   8  -2  751.09   36.50
  -6   8   2  647.92   62.77
   4  -8  -2  908.12   68.94
   4  -8  -2  747.16   38.99
  -4  -8   2  742.51   62.67
   4  -8  -2  775.03   38.99
  -4  -8   2  736.70   40.08
  -4  -8   2  771.91   36.97
  -4  -8   2  826.50   76.03
   4   8  -2  781.07   35.64
   4   8  -2  808.24   38.50
  -2  -8   2  978.74   80.70
  -2  -8   2  955.17   44.08
   2  -8  -2  916.85   46.44
  -2  -8   2 1091.42   73.01
  -2  -8   2  941.92   47.35
   2  -8  -2  853.24   73.12
   2  -8  -2  976.26   46.72
  -2  -8   2  912.02   43.87
   2   8  -2 1014.87   45.06
  -2   8   2  988.28   46.46
   2   8  -2  925.60   43.18
  -2   8   2  926.14   77.57
   0  -8  -2  942.99   44.81
   0  -8   2  927.64   41.73
   0  -8   2  889.59   44.53
   0  -8   2  977.93   68.16
   0  -8  -2  945.59   75.52
   0  -8  -2  804.81   43.83
   0  -8  -2  850.39   43.25
   0  -8   2  869.25   41.48
   0  -8   2  878.83   75.73
   0   8  -2  907.11   41.66
   0   8   2 1015.37   81.54
   0   8  -2  872.23   41.24
   0   8   2  923.45   44.22
   2  -8   2  770.07   66.99
   2  -8   2  841.86   61.27
  -2  -8  -2  844.62   42.19
   2  -8   2  805.35   38.64
   2  -8   2  800.52   38.57
  -2  -8  -2  805.12   37.68
  -2  -8  -2  748.14   69.74
   2  -8   2  845.76   41.52
  -2  -8  -2  832.25   41.93
  -2   8  -2  883.78   38.69
   2   8   2  875.04   75.96
  -2   8  -2  827.93   39.03
   2   8   2  856.13   41.83
   4  -8   2  844.78   41.66
   4  -8   2  821.09   59.40
   4  -8   2  892.94   39.64
  -4  -8  -2  861.36   75.51
  -4  -8  -2  855.48   38.02
   4  -8   2  826.77   39.14
  -4  -8  -2  864.74   43.03
  -4  -8  -2  841.49   43.00
   4  -8   2  890.45   67.69
  -4   8  -2  849.38   40.19
   4   8   2  793.25   42.32
   4   8   2  776.84   77.46
   6  -8   2  733.62   37.63
   6  -8   2  772.81   55.12
   6  -8   2  767.15   35.82
  -6  -8  -2  938.97   78.45
  -6  -8  -2  763.69   39.74
   6  -8   2  748.25   35.90
  -6  -8  -2  741.23   34.05
   6  -8   2  708.05   58.64
   6   8   2  790.62   40.33
  -6   8  -2  812.63   37.60
   6   8   2  672.21   75.86
  -8  -8  -2  635.40   34.22
   8  -8   2  645.71   30.37
  -8  -8  -2  678.65   69.61
   8  -8   2  623.21   31.68
   8  -8   2  620.45   29.94
   8  -8   2  658.72   53.92
  -8  -8  -2  580.43   27.70
   8   8   2  599.23   34.50
  -8   8  -2  651.64   32.18
  10  -8   2  362.28   34.46
  10  -8   2  446.38   21.51
 -10  -8  -2  481.26   68.20
  10  -8   2  426.55   22.79
 -10  -8  -2  458.75   53.79
  10  -8   2  425.68   40.43
  10  -8   2  414.56   21.63
 -10  -8  -2  395.16   18.66
 -10  -8  -2  421.43   25.61
  10   8   2  417.60   26.47
 -10   8  -2  415.11   23.69
 -12  -8  -2  289.83   20.12
  12  -8   2  304.69   16.13
  12  -8   2  291.10   16.59
  12  -8   2  291.98   31.77
  12  -8   2  291.50   17.09
 -12  -8  -2  281.53   54.74
 -12  -8  -2  302.29   51.36
  12  -8   2  303.73   28.20
 -12   8  -2  307.62   19.16
  12   8   2  277.30   21.18
 -14  -8  -2  329.72   22.39
 -14  -8  -2  455.69   62.44
  14  -8   2  353.45   26.80
  14  -8   2  412.38   30.06
  14  -8   2  338.76   18.78
 -14  -8  -2  355.44   59.08
  14  -8   2  341.57   17.90
  14  -8   2  332.26   18.75
  14   8   2  311.42   23.75
 -14   8  -2  337.35   21.35
  16  -8   2  202.21   12.70
  16  -8   2  184.65   11.79
 -16  -8  -2  173.67   45.79
 -16  -8  -2  226.64   46.33
 -16  -8  -2  167.84   15.07
  16  -8   2  196.45   11.33
  16   8   2  179.40   17.18
 -16   8  -2  189.21   15.04
 -18  -8  -2   98.22   10.68
 -18  -8  -2   85.65   45.19
 -18  -8  -2   -8.38   33.52
  18  -8   2  108.99    8.92
  18  -8   2  102.39    7.63
  18  -8   2   97.51    7.12
 -18   8  -2   91.25   10.28
  18   8   2   92.49   15.07
  20  -8   2   72.32    5.74
 -20  -8  -2  109.30   53.70
  20  -8   2   69.50    7.08
 -20  -8  -2  -15.87   35.95
  20  -8   2   71.22    6.02
 -20   8  -2   78.22   11.31
  20   8   2   70.00   12.96
 -22  -8  -2   -3.63   39.66
  22  -8   2   54.82    6.40
  22  -8   2   52.91    4.67
  22  -8   2   54.95    4.88
 -22  -8  -2   87.15   53.73
  22   8   2   67.82   13.85
 -22   8  -2   25.74    7.19
  24  -8   2   38.66    3.88
 -24  -8  -2   59.72   55.64
 -24  -8  -2   40.34    7.99
  24  -8   2   44.01    7.14
  24   8   2   49.19   12.39
 -26  -8  -2   71.01   66.91
  26  -8   2   33.29    6.61
 -26  -8  -2   29.42    6.54
  26   8   2   24.84    9.08
  28  -8   2   12.26    4.63
  28   8   2   14.12    6.96
  30  -8   2    1.64    2.99
 -30  -8  -2    0.53    1.83
  30   8   2    5.38    6.11
  27  -9  -2    3.09    2.99
 -27  -9   2    5.36    5.32
  27   9  -2    5.34    6.37
  27   9  -2   -0.32    4.33
  25  -9  -2    7.03    3.46
 -25  -9   2  -57.46   79.35
 -25  -9   2    9.60    5.78
  25   9  -2    8.53    6.79
  25   9  -2   10.86    6.64
 -23  -9   2    8.90    5.79
 -23  -9   2   31.37   63.37
 -23  -9   2  -64.15   75.47
  23  -9  -2   10.27    3.89
  23   9  -2   13.44    6.42
  23   9  -2    1.07    3.83
  21  -9  -2    0.58   20.73
 -21  -9   2   11.28   59.87
 -21  -9   2  -23.95   51.92
  21  -9  -2   14.72    4.02
 -21  -9   2   -1.08    3.59
  21   9  -2   11.38    6.12
  21   9  -2    6.29    5.18
 -19  -9   2    3.58   34.00
  19  -9  -2   17.73    4.90
  19  -9  -2   36.48   25.02
 -19  -9   2  -23.37   52.29
 -19  -9   2   12.02    6.05
  19   9  -2    9.78    5.41
  19   9  -2   16.32    6.72
 -17  -9   2   15.90   48.74
  17  -9  -2   13.91    4.34
  17  -9  -2   10.76   23.93
 -17  -9   2   23.20   39.21
 -17  -9   2   14.75    5.72
 -17   9   2  -15.34   26.58
  17   9  -2    6.01    5.02
  17   9  -2    8.65    5.79
 -15  -9   2    7.34    4.91
 -15  -9   2   14.17   34.89
 -15  -9   2  -27.06   33.20
  15  -9  -2    8.24    3.58
  15  -9  -2  -18.59   24.88
 -15   9   2    5.85   26.56
  15   9  -2    4.54    4.20
  15   9  -2    4.11    4.11
  13  -9  -2   12.88   24.81
 -13  -9   2   41.17   30.23
 -13  -9   2   -0.81    2.92
 -13  -9   2   23.75   40.13
  13  -9  -2    5.59    3.45
 -13   9   2   -1.65   24.15
  13   9  -2    3.49    3.85
  13   9  -2    1.63    3.47
 -11  -9   2   -6.80   27.18
  11  -9  -2   20.67   26.09
 -11  -9   2   19.35   36.85
 -11  -9   2    2.17    3.98
  11  -9  -2    8.84    3.58
 -11   9   2   -6.91   22.51
  11   9  -2    4.42    3.46
   9  -9  -2    2.46   20.91
  -9  -9   2    2.81    3.77
  -9  -9   2   20.74   19.70
   9  -9  -2   17.35    4.65
  -9  -9   2   -8.12   34.28
  -9   9   2    0.43   25.70
   9   9  -2   14.37    5.20
  -7  -9   2    0.28    1.78
   7  -9  -2    4.40    3.51
  -7  -9   2  -24.78   15.42
  -7  -9   2    1.00    3.05
   7  -9  -2   16.91   23.18
  -7  -9   2    0.41   23.83
   7   9  -2    6.18    2.14
  -7   9   2  -17.46   20.15
   7   9  -2   11.12    4.03
  -5  -9   2   37.59   23.24
  -5  -9   2   11.54    3.55
  -5  -9   2  -12.72   27.27
   5  -9  -2    4.08    3.21
   5  -9  -2    6.18   20.07
  -5  -9   2    2.13    3.30
  -5   9   2  -36.62   19.87
   5   9  -2    2.50    2.88
   5   9  -2    1.51    1.67
   3  -9  -2  -17.82   19.66
  -3  -9   2   26.31    6.61
   3  -9  -2   23.41    6.10
  -3  -9   2   25.79    4.87
  -3  -9   2   -9.91   24.69
  -3  -9   2   28.97   19.96
   3   9  -2   34.43    6.39
   3   9  -2   25.84    4.53
  -3   9   2   18.52   25.63
   1  -9  -2   10.33    4.30
  -1  -9   2   40.06   26.84
  -1  -9   2   11.86    4.79
  -1  -9   2   13.62    3.77
  -1  -9   2   18.68   18.24
   1  -9  -2  -10.13   20.80
   1   9  -2   20.93    4.42
  -1   9   2   14.65    4.85
  -1   9   2   29.33   27.32
   1   9  -2   17.09    4.14
  -1  -9  -2   13.54    4.78
   1  -9   2    5.49    3.60
  -1  -9  -2    3.85   17.50
   1  -9   2   13.71    3.39
   1  -9   2   40.39   23.87
   1  -9   2   18.74   16.94
   1   9   2   10.36   27.54
  -1   9  -2    5.57    2.81
  -1   9  -2   11.09    3.44
   1   9   2    4.70    3.45
   3  -9   2   12.05   22.35
   3  -9   2   21.17    5.73
  -3  -9  -2   71.67   29.50
   3  -9   2   50.17   19.52
  -3  -9  -2   20.64    6.06
   3  -9   2   27.47    5.31
  -3   9  -2   27.27    5.60
   3   9   2   26.40    6.51
   3   9   2   12.57   29.12
   5  -9   2   29.02   17.90
   5  -9   2    7.76    3.95
  -5  -9  -2    4.29    3.73
   5  -9   2   15.93   19.93
   5  -9   2   12.27    3.60
   5  -9   2    2.41    3.37
  -5  -9  -2    8.90    2.23
  -5  -9  -2   21.81   27.85
  -5   9  -2    9.57    3.43
   5   9   2    7.62    4.08
   7  -9   2    2.89    2.25
   7  -9   2   19.86   22.27
   7  -9   2    0.05    1.79
  -7  -9  -2    3.25    1.56
   7  -9   2    1.58    2.67
  -7  -9  -2    1.75    3.22
  -7  -9  -2  -10.32   19.49
  -7   9  -2    3.28    2.75
   7   9   2    4.81    3.98
   9  -9   2    8.91   21.17
   9  -9   2   17.68    4.43
  -9  -9  -2   10.88   30.44
  -9  -9  -2  -23.19   23.97
   9  -9   2   18.77    4.30
  -9  -9  -2   10.69    2.15
  -9  -9  -2    6.69    4.21
   9  -9   2   22.00    5.28
  -9   9  -2   14.60    4.49
   9   9   2   15.52    5.28
 -11  -9  -2   43.33   27.16
 -11  -9  -2   15.78    5.60
  11  -9   2   17.53    4.57
  11  -9   2   -5.32   19.34
 -11  -9  -2   26.10   28.18
 -11  -9  -2   14.88    1.78
  11  -9   2   18.52    4.26
  11  -9   2   -7.02   13.56
  11  -9   2   11.09    3.43
  11   9   2   16.88    5.93
 -11   9  -2   13.15    4.60
 -13  -9  -2    9.69   29.51
  13  -9   2   14.06    4.22
  13  -9   2    0.87   19.26
  13  -9   2   25.37    5.03
 -13  -9  -2   15.56    5.41
  13  -9   2   26.09    4.80
 -13  -9  -2   60.93   40.60
  13  -9   2   23.63   15.41
 -13   9  -2   24.79    6.24
  13   9   2   15.86    5.81
  15  -9   2   -2.37   14.23
  15  -9   2   12.33    3.84
 -15  -9  -2   15.50    5.89
  15  -9   2   16.40   12.09
  15  -9   2   12.20    3.57
  15  -9   2   15.51    3.95
 -15  -9  -2   40.24   41.38
 -15   9  -2    5.85    3.95
  15   9   2   11.79    6.24
 -17  -9  -2   21.16    6.77
 -17  -9  -2  -21.50   37.08
  17  -9   2   21.61    4.17
  17  -9   2   19.06    4.64
 -17  -9  -2   46.18   45.91
  17  -9   2   20.07    4.65
 -17   9  -2   23.52    6.65
  17   9   2   24.52    8.16
  19  -9   2    5.77    2.62
 -19  -9  -2  -20.00   37.42
  19  -9   2    7.80    3.02
 -19  -9  -2   35.27   45.92
 -19  -9  -2    2.51    4.11
 -19   9  -2    6.22    4.57
  19   9   2    4.12    5.29
 -21  -9  -2  -35.96   53.94
  21  -9   2    8.87    3.15
 -21  -9  -2  -12.88   49.00
  21  -9   2    4.80    2.85
 -21  -9  -2    1.60    4.10
  21   9   2    1.30    4.33
 -23  -9  -2   12.03   61.64
  23  -9   2    9.66    3.48
 -23  -9  -2    1.27    4.36
  23  -9   2   11.99    3.38
  23   9   2   10.95    6.97
 -25  -9  -2   -0.25    3.47
  25  -9   2    3.23    2.92
  25   9   2    4.41    5.63
  27  -9   2    3.99    3.38
 -27  -9  -2   10.27    5.10
  27   9   2    4.30    5.97
 -26 -10   2   11.62    6.76
  26 -10  -2    9.81    4.22
  26  10  -2   15.90    7.54
  24 -10  -2   19.26    5.20
 -24 -10   2   13.88    7.30
  24  10  -2   25.31    8.57
  22 -10  -2   43.52    7.56
 -22 -10   2   24.60    7.98
 -22 -10   2    0.76   72.26
  22  10  -2   25.57    8.48
 -20 -10   2   30.95    8.92
  20 -10  -2   38.73   28.84
 -20 -10   2 -102.91   57.97
 -20 -10   2  121.85   73.68
  20 -10  -2   38.98    7.25
  20  10  -2   26.53    8.44
 -18 -10   2  -44.67   50.35
 -18 -10   2   72.31   13.12
 -18 -10   2   78.01   64.64
  18 -10  -2   61.96    8.97
  18 -10  -2   76.47   33.29
  18  10  -2   60.65   11.98
  16 -10  -2   88.00   37.51
 -16 -10   2   75.42   12.79
 -16 -10   2   26.48   56.61
 -16 -10   2   70.07   51.44
  16 -10  -2   69.24   10.02
  16  10  -2   64.81   11.72
 -14 -10   2  167.87   45.94
  14 -10  -2   92.45    9.56
 -14 -10   2   51.13   53.15
  14 -10  -2  105.05   38.26
 -14 -10   2   98.67   15.15
  14  10  -2   88.78   14.68
  12 -10  -2  113.02   10.55
  12 -10  -2   39.37   31.36
 -12 -10   2   97.17   42.09
 -12 -10   2  148.31   46.75
 -12 -10   2   99.34   15.19
 -12  10   2  119.45   43.06
  12  10  -2   97.79   11.39
  10 -10  -2  168.29   42.27
 -10 -10   2  201.07   47.95
 -10 -10   2  131.46   14.44
  10 -10  -2  185.15   14.02
 -10 -10   2  183.76   50.86
  10  10  -2  150.89   13.99
 -10  10   2  118.59   39.21
  -8 -10   2  180.58   16.24
  -8 -10   2  229.07   49.08
   8 -10  -2  150.29   39.77
   8 -10  -2  192.88   15.05
  -8 -10   2  162.48   50.00
   8  10  -2  168.61   14.42
  -8  10   2  189.69   49.93
  -6 -10   2  162.56   54.76
   6 -10  -2  194.51   43.97
  -6 -10   2  249.72   45.85
   6 -10  -2  215.32   16.36
  -6 -10   2  213.32   17.78
   6  10  -2  208.23   12.65
  -6  10   2  233.55   54.47
   6  10  -2  208.71   15.68
  -4 -10   2  278.72   58.87
  -4 -10   2  186.74   16.46
  -4 -10   2  256.60   45.07
   4 -10  -2  199.65   16.10
  -4 -10   2  207.94   14.08
   4 -10  -2  217.20   47.02
   4  10  -2  212.35   15.06
   4  10  -2  210.61   13.10
  -2 -10   2  372.05   62.79
  -2 -10   2  304.08   18.54
   2 -10  -2  316.00   55.30
   2 -10  -2  321.19   21.52
  -2 -10   2  312.90   21.92
  -2  10   2  316.89   60.52
   2  10  -2  304.86   17.99
   2  10  -2  327.67   19.41
   0 -10   2  264.70   17.22
   0 -10   2  292.14   57.96
   0 -10  -2  280.12   54.20
   0 -10   2  326.49   21.44
   0 -10  -2  272.90   20.11
   0  10   2  256.40   19.13
   0  10  -2  291.39   17.56
   0  10  -2  356.98   18.65
   0  10   2  242.23   54.15
  -2 -10  -2  213.36   17.24
   2 -10   2  248.43   17.79
   2 -10   2  203.82   44.97
   2 -10   2  226.98   14.52
   2 -10   2  197.59   46.51
  -2 -10  -2  179.84   43.22
  -2  10  -2  214.37   14.67
   2  10   2  209.10   16.58
   4 -10   2  223.09   14.74
   4 -10   2  215.33   45.79
   4 -10   2  252.32   42.15
   4 -10   2  260.27   17.98
  -4 -10  -2  210.17   17.47
  -4 -10  -2  306.15   53.92
  -4  10  -2  225.47   15.48
   4  10   2  205.99   16.86
   6 -10   2  276.85   18.17
  -6 -10  -2  224.71   18.35
   6 -10   2  224.47   15.05
   6 -10   2  130.00   30.74
  -6 -10  -2  216.79   56.18
   6 -10   2  171.42   38.66
  -6 -10  -2  333.91   55.57
  -6  10  -2  251.75   16.64
   6  10   2  259.55   18.94
   8 -10   2  138.14   37.64
   8 -10   2  189.10   12.61
  -8 -10  -2  148.99    9.50
  -8 -10  -2  171.70   15.48
   8 -10   2  174.79   13.82
  -8 -10  -2  152.63   38.92
  -8 -10  -2  226.01   51.20
   8 -10   2  189.27   33.40
  -8  10  -2  176.70   13.82
   8  10   2  168.67   15.46
 -10 -10  -2  144.98   44.62
  10 -10   2  112.90   25.75
  10 -10   2  143.19   10.76
 -10 -10  -2  176.65   42.35
 -10 -10  -2  117.39   12.70
  10 -10   2  136.87   35.15
  10  10   2  120.99   13.33
 -10  10  -2  137.35   12.34
  12 -10   2  117.01   27.31
  12 -10   2  143.96   11.42
 -12 -10  -2  171.62   55.91
 -12 -10  -2  155.45   45.03
  12 -10   2  151.17   34.61
 -12 -10  -2  156.30   15.13
 -12  10  -2  163.84   13.82
  12  10   2  167.57   16.02
 -14 -10  -2  104.44   11.73
  14 -10   2  124.73   10.39
 -14 -10  -2   88.45   53.64
  14 -10   2   85.14   23.62
 -14 -10  -2  114.61   45.96
  14 -10   2   97.84    9.15
  14 -10   2   47.76   25.17
  14  10   2  109.46   16.88
 -14  10  -2   98.15   11.02
  16 -10   2   75.80    7.95
  16 -10   2   59.46   14.93
  16 -10   2   69.53    7.68
 -16 -10  -2   51.48   52.94
  16 -10   2   49.12   18.12
 -16 -10  -2   72.94   12.62
 -16 -10  -2   -5.97   43.77
  16  10   2   86.15   14.90
 -16  10  -2   84.53   12.45
 -18 -10  -2   24.18   58.53
 -18 -10  -2   65.03   11.80
  18 -10   2   73.59    7.58
 -18 -10  -2   60.66   56.26
 -18  10  -2   52.92   10.16
  18  10   2   64.03   12.63
 -20 -10  -2   40.91    8.86
 -20 -10  -2   37.67   65.81
  20 -10   2   30.62    5.99
 -20 -10  -2   -2.84   58.99
  20  10   2   49.42   11.24
 -22 -10  -2   30.05    7.77
 -22 -10  -2   23.67   74.48
  22 -10   2   44.93    6.75
  22 -10   2   32.99    6.01
  22  10   2   25.69    8.48
  24 -10   2   16.31    4.31
 -24 -10  -2   14.17    5.42
  24  10   2   14.98    6.79
 -26 -10  -2   11.07    5.59
  26 -10   2   12.87    4.38
  26  10   2   15.05    6.90
  23 -11  -2    0.49    3.34
 -23 -11   2   -1.52    3.52
  23  11  -2    8.03    6.65
  21 -11  -2    5.85    4.07
 -21 -11   2    1.30    4.36
 -21 -11   2   10.67   89.96
  21  11  -2    7.95    6.12
  19 -11  -2    8.54    4.55
 -19 -11   2  -18.54   90.77
 -19 -11   2    4.42    5.41
  19 -11  -2   13.30   37.78
 -19 -11   2  -17.77   72.46
  19  11  -2    7.43    5.67
 -17 -11   2  -44.33   56.86
  17 -11  -2  -24.08   41.45
 -17 -11   2  -92.78   72.91
  17 -11  -2    8.08    4.48
 -17 -11   2    7.59    5.89
  17  11  -2    3.75    4.28
  15 -11  -2   35.67   38.83
 -15 -11   2    3.17    5.08
 -15 -11   2   -2.15   70.14
  15  11  -2   23.54    6.36
 -13 -11   2  -35.53   57.72
  13 -11  -2   14.79    5.09
  13 -11  -2   -4.15   40.69
 -13 -11   2   13.38    6.05
  13  11  -2    4.94    4.63
  11 -11  -2   30.32   39.59
 -11 -11   2    0.48    4.12
 -11 -11   2   -5.01   53.16
  11 -11  -2    6.35    4.40
  11  11  -2    5.43    4.48
   9 -11  -2    6.82    4.32
   9 -11  -2    7.67   34.37
  -9 -11   2   34.13   52.72
  -9 -11   2    4.49    4.45
   9  11  -2   -0.03    3.20
  -7 -11   2    8.92    5.60
  -7 -11   2   65.39   48.93
   7 -11  -2   20.14   34.15
   7 -11  -2    8.07    4.89
  -7 -11   2  -10.78   34.85
   7  11  -2    9.36    4.66
   5 -11  -2   16.53   33.60
  -5 -11   2   11.50    6.17
   5 -11  -2    4.30    3.90
  -5 -11   2   -1.82   31.13
  -5 -11   2    9.00   42.78
   5  11  -2   11.38    4.78
  -3 -11   2    1.32   27.34
   3 -11  -2   -0.28    2.94
  -3 -11   2  -22.87   37.61
   3 -11  -2   12.93   33.68
  -3 -11   2    5.39    4.76
   3  11  -2    6.70    3.69
   1 -11  -2    5.65    3.90
  -1 -11   2    6.67    4.90
  -1 -11   2   14.68    5.07
  -1 -11   2   22.84   28.55
   1 -11  -2   15.97   33.88
  -1 -11   2   50.36   39.17
   1  11  -2   14.28    4.40
   1  11  -2    5.71    2.71
   1 -11   2    9.99    3.64
  -1 -11  -2  -20.19   34.41
  -1 -11  -2   22.40   31.12
   1 -11   2   35.55   36.21
  -1 -11  -2   25.35    7.55
   1 -11   2    9.39    5.28
   1 -11   2  -31.68   25.65
  -1  11  -2   21.29    5.15
   1  11   2   11.33    4.76
  -3 -11  -2  -27.41   36.85
  -3 -11  -2    3.37    4.05
   3 -11   2    4.04    2.92
   3 -11   2    5.93    4.00
   3 -11   2   26.07   38.79
   3 -11   2  -16.12   27.46
  -3  11  -2    2.87    2.91
   3  11   2    5.02    3.69
  -5 -11  -2   23.57   40.72
   5 -11   2   43.81   27.48
   5 -11   2   41.76   31.44
  -7 -11  -2   35.93   45.90
   7 -11   2  -22.61   32.58
  -7 -11  -2  -58.77   37.07
   7 -11   2    0.83    2.45
   7 -11   2   23.05   26.53
   7 -11   2    1.76    3.32
  -7 -11  -2    0.98    3.22
  -7  11  -2    8.70    4.13
   7  11   2    0.70    3.38
   9 -11   2    9.75    4.94
  -9 -11  -2   28.25   39.15
   9 -11   2   -7.47   24.69
  -9 -11  -2    0.51   47.65
   9 -11   2    5.89   33.70
  -9 -11  -2    7.30    4.95
   9 -11   2   12.81    4.06
   9  11   2    3.69    4.12
  -9  11  -2    5.51    3.90
 -11 -11  -2    1.32    3.88
  11 -11   2    3.59    3.12
 -11 -11  -2  -80.89   49.11
  11 -11   2    1.49   31.66
 -11 -11  -2  -26.20   42.00
  11 -11   2    7.77    4.37
  11  11   2    0.60    3.86
 -11  11  -2    4.55    3.94
  13 -11   2    3.25    3.02
  13 -11   2   23.58   31.62
 -13 -11  -2  -12.39   51.58
 -13 -11  -2    1.31    4.00
 -13 -11  -2   72.65   46.65
  13 -11   2    5.47    4.06
 -13  11  -2    4.49    3.91
  13  11   2    6.42    5.31
 -15 -11  -2   46.95   59.97
  15 -11   2    7.33    4.47
  15 -11   2    1.38   28.12
 -15 -11  -2  -64.22   55.26
 -15 -11  -2    5.33    5.05
  15  11   2   19.90    7.09
 -17 -11  -2    5.41    5.30
 -17 -11  -2  -27.30   65.10
 -17 -11  -2  -22.85   60.59
  17 -11   2    7.30    3.80
  17  11   2    9.82    6.34
 -19 -11  -2   75.10   72.25
 -19 -11  -2    4.83    5.15
 -19 -11  -2  -36.12   74.40
  19 -11   2    7.71    4.19
  19  11   2   10.74    7.33
  21 -11   2    8.57    4.40
  21 -11   2    2.47    2.56
 -21 -11  -2    6.28    5.60
  21  11   2    4.68    6.04
  23 -11   2    7.03    3.37
 -23 -11  -2   -1.44    3.22
  23  11   2    3.93    5.62
  20 -12  -2   25.07    6.84
 -20 -12   2   24.48    9.05
  20  12  -2   15.49    7.74
 -18 -12   2   76.99   90.44
  18 -12  -2   35.94    7.78
 -18 -12   2   42.88   11.23
  18 -12  -2  -51.54   52.05
 -18 -12   2   30.01  101.31
  18  12  -2   41.17   10.29
  16 -12  -2   34.91   58.16
 -16 -12   2   52.05   60.79
  16 -12  -2   43.76    9.13
 -16 -12   2   54.63   12.71
 -16 -12   2   20.28   90.64
  16  12  -2   69.46   13.37
 -14 -12   2   72.55   14.03
 -14 -12   2  148.85   82.71
  14 -12  -2   52.81   10.28
 -14 -12   2  151.33   72.69
  14 -12  -2   81.02   57.61
  14  12  -2   71.16   12.20
  12 -12  -2   94.21   55.89
 -12 -12   2  123.32   75.91
 -12 -12   2   79.08   63.92
  12 -12  -2   86.97   12.69
 -12 -12   2   81.96   14.26
  12  12  -2   75.80   12.27
 -10 -12   2  130.34   57.56
 -10 -12   2   82.80   71.30
 -10 -12   2  109.38   16.78
  10 -12  -2  117.20   12.27
  10 -12  -2  107.10   51.16
  10  12  -2   86.87   13.20
  -8 -12   2   80.41   54.48
  -8 -12   2  182.11   73.08
  -8 -12   2  143.09   15.91
   8 -12  -2   91.46   48.56
   8 -12  -2  165.85   14.98
   8  12  -2  158.12   14.22
  -6 -12   2  129.17   14.64
   6 -12  -2  145.32   55.26
  -6 -12   2  149.87   48.65
  -6 -12   2  214.51   68.57
   6 -12  -2  130.36   13.58
   6  12  -2  137.50   12.74
   4 -12  -2  147.12   43.29
  -4 -12   2   60.99   57.28
  -4 -12   2  140.58   15.13
   4 -12  -2  137.99   14.21
   4 -12  -2  107.93   50.82
  -4 -12   2  181.50   49.83
   4  12  -2  148.42   12.59
  -2 -12   2  171.06   17.09
   2 -12  -2  109.66   58.25
   2 -12  -2  192.76   17.06
   2 -12  -2  196.36   51.99
  -2 -12   2  256.03   53.07
  -2 -12   2  271.63   67.52
   2  12  -2  180.45   14.18
   0 -12  -2  109.44   56.43
   0 -12  -2  182.22   16.52
   0 -12   2  200.96   46.82
   0 -12   2  173.69   16.89
   0 -12  -2  154.46   51.69
   0 -12   2  180.52   58.24
   2 -12   2   45.43   48.85
   2 -12   2  177.15   15.98
  -2 -12  -2  143.85   14.82
  -2 -12  -2  136.67   49.54
   2 -12   2   61.07   38.73
  -2 -12  -2  154.05   62.11
   2  12   2  160.87   14.53
  -4 -12  -2  147.01   15.43
   4 -12   2   92.47   54.19
  -4 -12  -2  152.91   66.03
  -4 -12  -2  205.98   56.03
   4 -12   2  157.61   15.06
   4  12   2  148.51   14.78
  -6 -12  -2  161.27   65.53
  -6 -12  -2  131.40   54.37
   6 -12   2   81.06   53.53
  -6 -12  -2  149.61   15.47
   6 -12   2  145.55   14.65
   6  12   2  157.35   15.03
   8 -12   2   51.11   44.13
  -8 -12  -2  133.18   18.07
  -8 -12  -2  138.92   69.44
  -8 -12  -2   78.21   51.35
   8 -12   2  111.13   12.33
   8  12   2  140.05   14.35
 -10 -12  -2  145.11   62.07
 -10 -12  -2   -5.95   66.09
 -10 -12  -2  108.64   15.49
  10 -12   2  158.46   51.80
  10 -12   2   87.28   12.77
  10  12   2   96.73   14.93
 -12 -12  -2  232.95   72.77
 -12 -12  -2  231.52   79.84
  12 -12   2  115.83   11.99
  12 -12   2   38.71   46.82
 -12 -12  -2   89.77   15.00
  12  12   2   94.19   15.03
  14 -12   2   49.87   43.66
 -14 -12  -2   63.54   12.25
 -14 -12  -2  -11.65   70.55
  14 -12   2   68.39   10.87
 -14 -12  -2  116.31   82.12
  14  12   2   70.87   14.14
  16 -12   2    3.92   35.17
 -16 -12  -2    6.49   83.54
  16 -12   2   42.68    8.49
 -16 -12  -2   44.82    9.95
  16  12   2   50.57   11.94
 -18 -12  -2   28.91    8.36
  18 -12   2   38.42    7.90
  18  12   2   24.00    7.94
 -20 -12  -2   30.03    8.91
  20 -12   2   27.79    6.80
  20  12   2   21.31    9.35
  17 -13  -2    2.00    4.22
 -17 -13   2    2.04    5.21
  17  13  -2   -1.97    3.60
 -15 -13   2    0.61    5.02
  15 -13  -2    2.93    4.74
  15  13  -2    7.44    5.01
  13 -13  -2    0.47    3.73
 -13 -13   2    7.95    6.35
 -13 -13   2   25.46  104.19
  13  13  -2    6.72    5.15
  11 -13  -2    1.77    4.17
 -11 -13   2    1.28   89.52
 -11 -13   2    5.15    5.85
  11  13  -2    1.92    3.92
   9 -13  -2    3.89    4.29
  -9 -13   2   -2.97    3.21
  -9 -13   2  -47.17   82.80
   9 -13  -2   31.54   68.84
   9  13  -2    1.90    3.68
  -7 -13   2 -172.16   69.38
   7 -13  -2  -42.08   63.80
  -7 -13   2    9.81    6.78
   7 -13  -2    6.20    5.41
   7  13  -2    8.37    4.88
   5 -13  -2   15.29   66.04
  -5 -13   2   -9.99   69.46
   5 -13  -2    4.19    4.33
  -5 -13   2    2.77    4.66
   5  13  -2    3.73    3.70
  -3 -13   2   77.74   67.93
   3 -13  -2   19.68   56.15
   1 -13  -2   13.11    6.48
  -1 -13   2    2.49    5.11
  -1 -13   2  -29.88   61.10
   1 -13  -2   15.36   61.02
  -1 -13  -2  -24.20   61.88
   1 -13   2   13.60   54.63
  -1 -13  -2    6.31    5.35
   1 -13   2    3.51    4.85
  -3 -13  -2   12.41    6.16
   3 -13   2    5.41    5.16
  -3 -13  -2  -66.59   62.22
   3 -13   2  -17.43   53.42
   3  13   2    5.84    5.10
   5 -13   2  -47.21   57.55
   5 -13   2    0.99    4.06
  -5 -13  -2  -26.03   66.29
  -5 -13  -2   52.50   55.67
  -5 -13  -2   -4.21    2.63
   5  13   2    3.27    4.43
  -7 -13  -2    2.30    4.78
   7 -13   2   12.25   59.82
   7 -13   2    4.08    4.67
  -7 -13  -2   17.71   73.23
  -7 -13  -2  -65.87   62.15
   7  13   2    9.30    5.74
   9 -13   2  -15.86   54.78
   9 -13   2   13.61    5.96
  -9 -13  -2  -78.06   67.37
  -9 -13  -2   49.84   79.04
  -9 -13  -2    4.38    5.10
   9  13   2   15.10    6.14
  11 -13   2    3.07    4.30
  11 -13   2  -78.22   58.01
 -11 -13  -2  -31.46   84.33
 -11 -13  -2    1.08    4.34
 -11 -13  -2  -52.41   72.21
  11  13   2    4.71    4.49
  13 -13   2  -27.94   54.79
 -13 -13  -2  217.33   93.12
 -13 -13  -2   -1.72   89.19
  13 -13   2   10.30    5.86
 -13 -13  -2   -0.05    4.05
  13  13   2    8.58    6.44
 -15 -13  -2   40.92  103.14
 -15 -13  -2    1.31   97.76
 -15 -13  -2   -1.27    3.96
  15 -13   2    5.47    4.83
  15  13   2    4.90    5.53
 -17 -13  -2    6.10    6.07
  17 -13   2    5.34    4.54
  17  13   2    5.98    5.97
 -12 -14   2   40.44   10.27
  12 -14  -2   21.70    7.63
  12  14  -2   36.91    8.79
  10 -14  -2   37.72   10.18
 -10 -14   2   49.80   11.92
  10  14  -2   46.41   10.20
  -8 -14   2   27.85    9.61
   8 -14  -2   49.08   10.60
   8  14  -2   44.61    9.25
  -6 -14   2   64.47   13.97
   6 -14  -2   42.56   10.07
   6  14  -2   51.74    9.18
   4 -14  -2   52.07   11.02
  -4 -14   2   58.36   12.70
   4  14  -2   49.14    9.04
   2 -14  -2   83.30   14.40
  -2 -14   2   77.54   14.79
   0 -14   2   74.26   14.07
   0 -14  -2   62.25   12.61
  -2 -14  -2   58.99   12.21
   2 -14   2   69.65   13.89
  -4 -14  -2   58.63   12.33
   4 -14   2   48.88   11.42
   4  14   2   57.72   10.72
  -6 -14  -2   58.58   11.88
   6 -14   2   42.26   10.64
   6  14   2   41.77    9.14
  -8 -14  -2   61.01   13.02
   8 -14   2   49.56   11.14
   8  14   2   62.87   12.67
  10 -14   2   33.61    9.58
 -10 -14  -2   38.33   11.00
  10  14   2   30.48    8.89
  12 -14   2   34.95    9.69
 -12 -14  -2   25.82    8.93
  12  14   2   31.49    8.97
  -5 -15   2    1.44    5.04
   5 -15  -2    0.94    3.87
  -3 -15   2    6.93    6.65
   3 -15  -2   -2.36    3.82
   1 -15  -2   -2.37    3.91
  -1 -15   2   -3.04    2.89
   1 -15   2    0.46    4.57
  -1 -15  -2   -3.96    2.60
  -3 -15  -2   12.03    7.32
  34   0  -3   -2.83    3.29
  34   0  -3    2.09    3.43
 -32   0   3   84.95   54.69
  30   0  -3   10.60    3.83
 -30   0   3  -13.40   38.64
  30   0  -3   18.39    6.47
  28   0  -3   20.02    6.32
 -28   0   3    8.58   31.10
  28   0  -3   18.45    4.60
  26   0  -3   38.59    8.32
  26   0  -3   -3.04   23.41
 -26   0   3   13.37   29.41
 -24   0   3   28.17   24.24
  24   0  -3   31.38   22.09
  24   0  -3   28.03    6.67
  24   0  -3   22.61    4.78
  22   0  -3    8.83    3.07
 -22   0   3   22.75   17.08
  22   0  -3  -22.85   16.21
  22   0  -3   11.75    4.15
 -20   0   3   33.48    3.32
 -20   0   3   54.92   20.72
  20   0  -3   33.70    4.96
  20   0  -3   36.56    6.29
  20   0  -3   27.80   16.37
 -20   0   3   30.14    3.02
 -18   0   3  156.96   28.98
  18   0  -3  161.08   11.47
 -18   0   3  158.03    8.90
  18   0  -3  149.82    9.60
  18   0  -3  133.82   27.59
 -18   0   3  157.33    9.50
  18   0  -3  142.85    9.46
 -16   0   3  108.98    7.04
  16   0  -3  114.69    7.60
  16   0  -3  102.71    8.57
  16   0  -3  107.19    7.54
  16   0  -3  113.27   23.11
 -16   0   3  130.96   25.94
  14   0  -3   13.31    9.72
 -14   0   3   40.17   16.05
  14   0  -3   33.00    3.60
 -14   0   3   33.33    3.48
 -12   0   3  909.47   38.34
  12   0  -3  785.08   54.41
 -10   0   3   48.15   16.89
 -10   0   3   51.23    4.32
  10   0  -3   51.76   13.31
  10   0  -3   50.79    4.25
   8   0  -3   26.11    2.88
   8   0  -3   30.44   11.09
  -8   0   3   29.10    3.00
  -8   0   3   22.92    9.93
   6   0  -3  835.52   49.82
  -6   0   3  799.26   50.38
   4   0  -3   -4.99    3.13
  -4   0   3    7.69    6.45
   4   0  -3    1.38    1.03
  -4   0   3   -0.31    0.77
  -2   0   3  201.65   20.40
  -2   0   3  227.16   11.28
   2   0  -3  229.98   20.84
   2   0  -3  228.73   11.13
   0   0  -3   68.33    4.49
   0   0  -3   81.73   14.07
   0   0   3   69.16    4.69
   0   0   3   79.76   14.41
   0   0  -3   79.30    4.70
   2   0   3   27.84    2.44
   2   0   3   22.87    7.73
  -2   0  -3   26.94    2.37
   2   0   3   24.19    2.46
  -2   0  -3   26.64    2.61
  -2   0  -3   17.29    6.82
   4   0   3  480.93   21.04
  -4   0  -3  414.82   30.03
  -4   0  -3  448.20   21.05
   4   0   3  484.51   32.29
   6   0   3   20.01    3.18
   6   0   3   23.21    2.42
   6   0   3   20.95    8.22
  -6   0  -3   26.49    8.25
  -6   0  -3   24.96    1.97
  -6   0  -3   26.90    2.84
  -8   0  -3  112.31   14.76
  -8   0  -3  122.67    5.76
   8   0   3  123.00    6.86
  -8   0  -3  122.51    5.59
  -8   0  -3  125.08    7.29
  -8   0  -3   97.38    6.95
   8   0   3  118.47    7.86
   8   0   3  115.02   17.08
 -10   0  -3  187.61   19.27
  10   0   3  212.83   12.07
 -10   0  -3  201.96   11.06
  10   0   3  206.28   10.44
 -10   0  -3  192.42   10.71
  10   0   3  183.02   19.90
 -12   0  -3  145.35    9.06
  12   0   3  154.88   22.19
 -12   0  -3  143.79    8.74
  12   0   3  159.27   10.36
 -12   0  -3  145.50   18.04
  12   0   3  146.61    8.51
  14   0   3   26.51    3.88
  14   0   3   20.81    4.83
 -14   0  -3   12.24    2.74
 -14   0  -3   21.22    3.80
 -14   0  -3   27.39   10.49
  14   0   3    0.16    9.56
 -16   0  -3  -18.18    7.51
  16   0   3   -1.54    1.09
 -16   0  -3    1.09    1.53
  16   0   3   -0.99    1.09
 -16   0  -3    0.64    1.35
  16   0   3   -0.13    1.68
 -16   0  -3   -2.78    8.72
  18   0   3   -1.80    1.70
 -18   0  -3   -5.07   10.33
 -18   0  -3    1.85    1.73
  18   0   3    3.82    2.15
  18   0   3    2.45    1.85
 -18   0  -3   -3.84    8.86
  20   0   3   10.68    4.30
 -20   0  -3    8.53   10.70
  20   0   3   14.66    3.41
 -20   0  -3   13.68    3.26
  20   0   3   18.21    3.77
 -20   0  -3    1.18   11.57
 -22   0  -3   27.48   14.31
  22   0   3    9.63    3.23
  22   0   3    9.30    3.11
 -22   0  -3    3.56    2.30
 -22   0  -3  -12.85   12.69
  22   0   3   10.91    4.57
  24   0   3   -0.36    2.00
 -24   0  -3   -9.10   13.20
  24   0   3    4.22    2.68
  24   0   3    4.35    3.54
 -24   0  -3    2.81   14.98
 -24   0  -3   -0.07    1.70
 -26   0  -3    9.32   15.77
  26   0   3   -0.78    1.88
 -26   0  -3   -0.49    1.69
  26   0   3   -0.10    2.67
  26   0   3    1.06    2.19
 -26   0  -3   10.58   15.81
 -28   0  -3   -6.08   15.70
  28   0   3    8.19    4.96
 -28   0  -3    4.16   18.21
  30   0   3    5.76    4.83
 -30   0  -3   15.75   12.94
  32   0   3    1.13    3.83
  34   0   3    6.21    5.23
  35  -1  -3    1.08    4.50
  35  -1  -3    3.16    3.73
  35   1  -3    0.69    4.03
  35   1  -3    3.39    3.93
  33  -1  -3   10.44    3.89
  33  -1  -3   19.55    6.70
 -33  -1   3  -26.60   63.37
 -33   1   3  -32.25   51.25
  33   1  -3    9.01    6.04
  33   1  -3   16.27    5.04
  31  -1  -3   19.32    6.36
 -31  -1   3   18.22   48.39
  31  -1  -3   18.07    4.57
  31   1  -3   18.10    6.56
  31   1  -3   20.29    5.11
 -31   1   3   -3.86   41.47
  29  -1  -3   18.96    6.45
 -29  -1   3   36.73   40.20
  29  -1  -3   28.15    5.29
  29   1  -3   33.71    7.95
 -29   1   3   21.30   35.79
  29   1  -3   32.02    6.39
  27  -1  -3   51.72    9.51
  27  -1  -3   14.25   25.11
 -27  -1   3  -17.45   31.99
  27  -1  -3   50.37    5.56
  27   1  -3   43.28    6.82
 -27   1   3   53.55   33.61
  25  -1  -3   70.27    6.64
  25  -1  -3   71.23   10.37
 -25  -1   3   24.20   29.03
  25  -1  -3   48.21   23.74
  25   1  -3   67.19    6.93
  25   1  -3   63.39   10.43
  25   1  -3   47.83   28.27
 -25   1   3   73.32   28.32
 -23  -1   3  128.79    7.47
  23  -1  -3  128.50    9.17
  23  -1  -3  102.96   26.52
 -23  -1   3  128.66    7.85
  23  -1  -3  136.21   11.62
 -23  -1   3  149.83   37.36
  23   1  -3  122.91    9.63
  23   1  -3  136.90   12.12
 -23   1   3  127.33   30.57
  23   1  -3  118.90   30.59
 -21  -1   3  118.57    7.79
 -21  -1   3  169.84   33.90
  21  -1  -3  115.91    8.40
  21  -1  -3  127.02   10.75
 -21  -1   3  130.75    8.74
  21  -1  -3  132.02   25.96
  21   1  -3   57.38   20.76
  21   1  -3  145.22   11.67
 -21   1   3  139.26   28.53
  21   1  -3  133.65    9.24
  21   1  -3  126.21    8.34
  19  -1  -3  209.82   12.16
 -19  -1   3  211.74   11.77
  19  -1  -3  167.51   27.11
 -19  -1   3  255.17   39.65
  19  -1  -3  228.08   14.50
 -19  -1   3  233.62   13.24
  19   1  -3  215.06   12.64
 -19   1   3  212.27   34.67
  19   1  -3  194.03   32.22
  19   1  -3  194.13   11.74
  19   1  -3  218.81   14.59
 -17  -1   3  600.55   28.87
 -17  -1   3  621.59   52.52
 -17  -1   3  647.09   30.60
  17  -1  -3  671.21   49.15
  17  -1  -3  620.20   29.07
  17   1  -3  625.30   31.40
 -17   1   3  640.77   50.07
  17   1  -3  650.94   29.67
  17   1  -3  631.68   50.23
 -17   1   3  648.60   27.76
 -17   1   3  636.49   28.05
  17   1  -3  582.24   28.73
  15  -1  -3  660.97   30.51
 -15  -1   3  682.14   30.68
  15  -1  -3  691.45   49.05
  15  -1  -3  625.83   31.04
  15   1  -3  706.03   52.00
 -15   1   3  645.39   49.82
  15   1  -3  689.86   32.50
  15   1  -3  688.82   30.96
 -15   1   3  667.31   29.82
 -13  -1   3  883.18   38.07
 -13  -1   3  745.35   58.71
  13  -1  -3  835.37   54.41
  13   1  -3  804.98   56.53
 -13   1   3  873.04   37.56
 -13   1   3  926.74   59.06
 -11  -1   3 1184.73   71.43
  11  -1  -3 1242.21   68.12
  11   1  -3 1163.45   69.22
 -11   1   3 1060.93   67.65
   9  -1  -3 1513.95   82.92
  -9  -1   3 1661.84   87.77
   9   1  -3 1578.93   85.51
   7  -1  -3 3063.07  141.61
  -7  -1   3 3051.38  144.32
  -7   1   3 2881.98  142.55
   7   1  -3 3012.22  142.29
   5  -1  -3 1526.17   78.71
  -5  -1   3 1544.82   80.08
  -5   1   3 1444.88   79.08
   5   1  -3 1458.34   77.86
  -3  -1   3 1545.48   80.06
   3  -1  -3 1497.63   79.94
   3   1  -3 1586.12   79.45
  -3   1   3 1564.09   81.33
   1  -1  -3 4153.82  182.78
  -1  -1   3 4028.93  180.77
   1   1  -3 3966.89  179.47
  -1   1   3 3993.50  182.87
   1  -1   3  422.84   30.94
  -1  -1  -3  466.12   21.96
  -1  -1  -3  517.82   34.73
   1   1   3  455.66   33.72
   1   1   3  495.80   21.91
  -3  -1  -3 1502.15   74.38
   3  -1   3 1358.50   69.31
  -3   1  -3 1321.82   67.70
   3   1   3 1303.53   72.44
  -5  -1  -3 3500.38  162.54
   5  -1   3 3563.31  157.60
   5   1   3 3474.29  162.53
  -5   1  -3 3615.59  156.67
  -7  -1  -3 1842.42   94.22
   7  -1   3 1841.76   88.02
  -7   1  -3 1866.79   87.19
   7   1   3 1873.95   94.94
  -9  -1  -3 2293.52  114.59
   9  -1   3 2317.60  106.58
   9   1   3 2261.79  114.63
  -9   1  -3 2408.30  106.45
  11  -1   3  821.38   36.55
 -11  -1  -3  826.77   52.01
 -11  -1  -3  812.13   36.95
  11  -1   3  838.72   44.94
  11   1   3  799.87   36.21
  11   1   3  767.97   37.78
 -11   1  -3  789.55   43.30
  11   1   3  779.25   52.67
 -13  -1  -3  510.47   39.32
 -13  -1  -3  515.90   21.40
 -13  -1  -3  505.08   23.34
 -13  -1  -3  528.91   25.15
  13  -1   3  513.06   22.53
 -13  -1  -3  508.21   21.49
  13  -1   3  498.43   24.90
  13  -1   3  521.94   33.16
 -13   1  -3  494.50   24.21
  13   1   3  508.92   26.38
 -13   1  -3  502.64   30.96
  13   1   3  446.79   39.84
  13   1   3  498.63   24.39
 -15  -1  -3  580.42   44.10
 -15  -1  -3  578.32   26.60
  15  -1   3  598.50   25.99
 -15  -1  -3  547.08   28.13
  15  -1   3  591.71   28.83
  15  -1   3  554.06   25.89
 -15   1  -3  583.20   27.68
 -15   1  -3  589.77   33.33
  15   1   3  599.33   28.06
  15   1   3  595.33   30.30
 -15   1  -3  580.31   34.65
 -17  -1  -3  585.63   28.81
  17  -1   3  601.31   29.69
 -17  -1  -3  563.47   26.80
 -17  -1  -3  559.70   45.12
  17  -1   3  573.69   26.19
  17  -1   3  581.92   26.48
 -17  -1  -3  585.38   42.79
 -17   1  -3  618.17   35.43
  17   1   3  588.68   28.09
  17   1   3  567.17   28.39
  17   1   3  618.28   31.29
 -17   1  -3  549.94   33.21
 -17   1  -3  562.66   27.91
 -19  -1  -3  190.02   12.56
 -19  -1  -3  207.43   26.66
 -19  -1  -3  170.61   10.71
  19  -1   3  176.42   10.35
 -19  -1  -3  165.42   27.95
  19  -1   3  186.99   13.45
  19  -1   3  180.33   10.72
  19   1   3  190.72   12.37
  19   1   3  199.73   12.22
 -19   1  -3  198.23   17.70
 -19   1  -3  203.78   12.21
  19   1   3  216.18   15.22
 -19   1  -3  199.60   18.59
  21  -1   3  149.82    9.50
 -21  -1  -3  147.38    9.34
 -21  -1  -3  144.77   27.35
  21  -1   3  145.58   12.14
 -21  -1  -3  159.38   25.06
  21  -1   3  143.94    8.95
  21   1   3  133.34   10.62
 -21   1  -3  144.33   10.33
 -21   1  -3  136.65   14.99
  21   1   3  141.16   10.27
 -21   1  -3  154.25   16.44
  21   1   3  142.39   12.96
 -23  -1  -3   42.73   19.21
  23  -1   3   80.12    6.69
 -23  -1  -3   66.97    6.06
 -23  -1  -3   53.36   22.29
  23  -1   3   76.16    6.17
  23  -1   3   90.79   12.04
  23   1   3   66.64    7.31
  23   1   3   80.22   12.14
 -23   1  -3   61.85    9.94
  23   1   3   73.07    7.25
 -23   1  -3   62.16   10.67
 -23   1  -3   70.13    7.08
 -25  -1  -3   63.55   24.17
  25  -1   3   53.54    7.12
  25  -1   3   27.62    6.95
 -25  -1  -3   40.81    5.75
  25  -1   3   46.37    5.12
 -25  -1  -3   30.54   22.20
 -25   1  -3   56.51    7.71
  25   1   3   45.00    7.03
  25   1   3   46.52    9.91
  27  -1   3   38.54    8.47
 -27  -1  -3   11.68   23.07
 -27  -1  -3   55.68   27.21
  27  -1   3   42.15    6.23
 -27   1  -3   41.39    6.70
  27   1   3   63.39   12.08
  29  -1   3   33.18    7.67
 -29  -1  -3   27.70   26.50
  29   1   3   25.75    7.93
 -31  -1  -3   42.33   29.96
  31   1   3   29.43    9.20
  33  -1   3    5.28    4.85
  33   1   3    9.52    6.79
  35  -1   3   -2.03    2.93
  35   1   3    6.22    6.00
  34  -2  -3    4.02    4.50
  34  -2  -3    5.09    3.49
  34   2  -3    5.25    5.20
  34   2  -3    2.28    3.70
 -32  -2   3  -52.53   58.42
  32  -2  -3    5.05    3.24
  32  -2  -3    2.72    4.01
  32   2  -3    9.82    4.84
  32   2  -3    6.84    5.10
 -32   2   3   86.69   39.93
  30  -2  -3    5.85    3.08
 -30  -2   3   -6.69   47.50
  30  -2  -3   13.44    5.46
  30   2  -3    9.32    4.51
  30   2  -3   -1.32    3.09
 -30   2   3    6.83   34.13
  28  -2  -3   11.19    3.54
  28  -2  -3   15.39    5.65
 -28  -2   3   34.13   41.05
 -28   2   3   44.53   30.43
  28   2  -3   11.92    4.42
  28   2  -3   16.02    5.77
  26  -2  -3   32.06    7.35
 -26  -2   3   13.57    2.73
  26  -2  -3   24.18   23.45
  26  -2  -3   24.40    4.68
 -26  -2   3   44.80   35.80
  26   2  -3   22.27    3.66
 -26   2   3   20.73   25.30
  26   2  -3   24.91    7.00
  26   2  -3   23.53    5.43
  24  -2  -3   32.38   20.86
 -24  -2   3   51.10    4.49
 -24  -2   3   47.83   27.75
  24  -2  -3   40.74    7.87
 -24  -2   3   46.41    5.01
  24  -2  -3   48.56    6.31
 -24   2   3   22.42   22.88
  24   2  -3   21.05   25.79
  24   2  -3   47.45    6.96
  24   2  -3   39.11    4.11
  24   2  -3   27.25    7.08
  22  -2  -3   16.94   17.38
 -22  -2   3   21.88    4.48
 -22  -2   3   21.06   21.42
 -22  -2   3   23.44    3.91
  22  -2  -3   18.11    4.86
  22  -2  -3   25.58    4.49
  22   2  -3   26.32    5.34
  22   2  -3   27.33    3.92
  22   2  -3   19.27    5.69
  22   2  -3    8.88   18.91
 -22   2   3   42.44   19.05
 -20  -2   3   29.59    5.34
  20  -2  -3   12.69   13.57
 -20  -2   3   26.93    4.31
 -20  -2   3   28.37   21.72
  20  -2  -3   23.67    4.15
 -20   2   3   34.24   18.80
  20   2  -3   39.72    7.67
  20   2  -3   31.49    3.30
  20   2  -3   12.64   17.50
  20   2  -3   25.96    5.02
  18  -2  -3   87.57    6.53
  18  -2  -3   47.84   16.48
 -18  -2   3   86.58    6.56
 -18  -2   3   94.03    8.27
  18   2  -3   79.61   22.80
  18   2  -3   81.08    7.05
  18   2  -3   84.60    8.39
 -18   2   3   61.30   20.20
  18   2  -3   79.45    5.81
 -16  -2   3   36.94   17.59
  16  -2  -3   77.44    5.88
  16  -2  -3   84.27   18.03
 -16  -2   3   75.72    6.01
 -16  -2   3   80.23    7.60
  16   2  -3   62.92    5.95
  16   2  -3   75.29   21.18
  16   2  -3   62.36    6.91
 -16   2   3   66.00    3.88
 -16   2   3   65.23   18.57
 -14  -2   3   13.73    3.04
  14  -2  -3   18.09   11.64
  14  -2  -3    9.00    2.48
 -14  -2   3   -1.51   10.30
 -14   2   3   10.08   11.70
  14   2  -3    9.50    3.06
  14   2  -3    5.29    2.13
  14   2  -3    4.35   10.54
 -14   2   3   11.16    2.11
  12  -2  -3   50.50    4.48
  12  -2  -3   68.25   15.80
 -12  -2   3   48.02   17.64
 -12  -2   3   41.34    4.25
 -12   2   3   70.77   18.25
  12   2  -3   58.90    5.53
  12   2  -3   54.36    4.78
  12   2  -3   77.33   19.12
 -12   2   3   52.78    4.21
  10  -2  -3   34.14    3.48
  10  -2  -3   43.89   12.82
 -10  -2   3   26.95   13.26
 -10  -2   3   31.41    3.28
  10   2  -3   15.85    3.18
  10   2  -3   21.46   11.60
  10   2  -3   20.12    3.71
 -10   2   3   22.63   10.77
 -10   2   3   20.63    3.33
   8  -2  -3   36.88   11.48
  -8  -2   3   31.34    3.95
   8  -2  -3   25.38    3.60
  -8  -2   3   21.34   11.76
   8   2  -3   14.60    2.71
   8   2  -3   18.05    3.09
   8   2  -3   14.77    8.15
  -8   2   3   22.33    3.59
  -6  -2   3  291.02   28.25
   6  -2  -3  333.59   16.62
  -6  -2   3  311.67   16.22
   6  -2  -3  337.40   29.34
   6   2  -3  363.86   16.51
   6   2  -3  350.45   30.24
  -6   2   3  324.95   29.57
   6   2  -3  350.25   16.27
  -6   2   3  358.67   16.86
  -4  -2   3    0.31    0.86
   4  -2  -3    1.22    1.17
  -4  -2   3   12.40    7.05
   4  -2  -3    4.32    7.51
  -4   2   3    1.02    6.14
   4   2  -3   -3.77    5.65
  -4   2   3    2.25    1.53
   4   2  -3    2.88    1.07
   4   2  -3    1.69    1.10
  -2  -2   3  309.91   13.62
  -2  -2   3  272.57   24.75
   2  -2  -3  252.84   14.07
   2  -2  -3  295.73   14.27
   2  -2  -3  337.30   27.99
  -2   2   3  260.37   14.08
  -2   2   3  244.60   25.30
   2   2  -3  263.78   13.21
   0  -2   3  275.91   23.50
   0  -2  -3  290.09   15.16
   0  -2   3  278.29   13.73
   0  -2  -3  263.06   25.53
   0  -2  -3  292.86   14.77
   0   2  -3  298.77   12.59
   0   2   3  286.12   27.08
   0   2  -3  315.72   13.81
   0   2   3  249.31   14.54
   0   2   3  325.15   15.18
   0   2  -3  339.47   24.95
   2  -2   3   44.55    3.23
  -2  -2  -3   45.66   12.86
   2  -2   3   35.92    9.98
  -2  -2  -3   43.68    4.06
  -2  -2  -3   38.54    4.28
   2   2   3   38.85   11.93
  -2   2  -3   51.42    3.98
   2   2   3   46.92    4.35
  -2   2  -3   54.42   10.74
  -2   2  -3   51.18    3.25
   2   2   3   47.38    4.35
  -4  -2  -3   34.16    5.17
   4  -2   3   40.09    2.89
  -4  -2  -3   37.99    3.81
   4  -2   3   36.34    2.14
   4  -2   3   29.66    8.68
  -4  -2  -3   66.04   16.13
  -4   2  -3   51.26    4.09
   4   2   3   55.25    4.93
   4   2   3   72.80   16.79
   4   2   3   52.40    4.44
  -4   2  -3   62.52   10.54
   6  -2   3    9.89    1.59
  -6  -2  -3    6.80    2.15
  -6  -2  -3    9.05    2.92
  -6  -2  -3   -1.11    4.79
   6  -2   3    9.15    1.43
   6  -2   3    9.10    5.22
  -6   2  -3    3.17    1.51
   6   2   3    6.29    8.53
   6   2   3    4.84    2.20
   6   2   3    8.47    2.44
  -6   2  -3   11.49    4.83
  -8  -2  -3  314.93   16.54
   8  -2   3  341.28   14.75
  -8  -2  -3  343.51   16.75
  -8  -2  -3  329.34   18.11
   8  -2   3  361.73   23.10
   8  -2   3  331.02   15.75
  -8  -2  -3  342.47   31.53
   8   2   3  341.44   17.51
   8   2   3  350.87   18.75
  -8   2  -3  315.11   21.01
  -8   2  -3  352.38   17.12
   8   2   3  338.55   31.96
  10  -2   3   58.13    8.90
  10  -2   3   55.81    3.11
 -10  -2  -3   59.96    4.57
 -10  -2  -3   55.23    4.61
  10  -2   3   49.96    4.57
 -10  -2  -3   52.76    5.59
 -10  -2  -3   53.75   14.96
  10  -2   3   56.83    4.49
 -10  -2  -3   55.32    4.10
 -10   2  -3   62.07    8.60
  10   2   3   57.03   16.72
 -10   2  -3   54.45    5.03
  10   2   3   62.17    5.54
  10   2   3   59.60    6.38
  12  -2   3    0.61    3.93
 -12  -2  -3    9.52    2.05
 -12  -2  -3    6.52    1.99
  12  -2   3    8.75    1.21
 -12  -2  -3    7.34    2.70
  12  -2   3    5.13    1.96
  12  -2   3    9.04    2.07
 -12  -2  -3   -5.10    9.04
 -12  -2  -3    9.65    2.05
  12   2   3   -3.75    9.83
  12   2   3    8.53    2.63
 -12   2  -3    2.65    1.73
 -12   2  -3    4.76    3.36
  12   2   3    3.58    2.60
  14  -2   3   37.63    5.30
 -14  -2  -3   37.31    5.84
 -14  -2  -3   32.28    3.01
 -14  -2  -3   38.40    3.48
 -14  -2  -3   32.65   13.95
 -14  -2  -3   35.54    3.33
  14  -2   3   35.33    2.46
  14   2   3   50.71    7.73
  14   2   3   42.74    6.06
 -14   2  -3   32.65    4.82
  14   2   3   28.90   15.94
  16  -2   3  100.47    5.36
 -16  -2  -3  111.97   23.67
 -16  -2  -3  109.23    5.49
  16  -2   3  101.53    7.99
  16  -2   3   77.89    5.11
 -16  -2  -3   85.50    5.96
 -16  -2  -3   97.93    8.28
 -16  -2  -3  104.29    5.76
  16   2   3   96.55    9.70
 -16   2  -3   86.39    7.55
  16   2   3   89.38    7.84
  18  -2   3   23.89    2.55
  18  -2   3   22.85    2.42
  18  -2   3   22.09    4.94
 -18  -2  -3   16.14   14.77
 -18  -2  -3   29.23    5.20
 -18  -2  -3   26.72    3.07
 -18  -2  -3   21.61   15.03
  18   2   3   17.13    5.30
 -18   2  -3   22.65    4.49
  18   2   3   29.51    5.51
 -20  -2  -3   56.90   20.27
 -20  -2  -3   41.33    4.09
  20  -2   3   40.21    7.07
  20  -2   3   52.44    4.14
  20  -2   3   47.78    3.84
 -20  -2  -3   33.27   19.40
  20   2   3   36.71    8.07
  20   2   3   46.80    7.22
 -20   2  -3   50.05    5.92
 -22  -2  -3   54.84    4.79
 -22  -2  -3   69.91   24.47
  22  -2   3   54.18    8.79
 -22  -2  -3   44.17   20.98
  22  -2   3   51.01    4.34
  22  -2   3   47.56    4.52
  22   2   3   54.30    8.33
 -22   2  -3   44.95    6.70
  22   2   3   45.03    9.24
  24  -2   3   14.28    5.14
 -24  -2  -3   32.78   22.98
  24  -2   3   12.51    3.04
  24  -2   3   15.59    3.13
 -24  -2  -3   26.60   23.51
  24   2   3   10.62    5.28
 -24   2  -3   13.57    4.06
  26  -2   3    7.33    2.55
 -26  -2  -3  -21.98   23.29
  26  -2   3   18.07    5.86
 -26  -2  -3   -9.26   25.20
  26   2   3    3.58    4.18
 -26   2  -3    5.28    3.06
  28  -2   3   21.24    6.48
 -28  -2  -3   30.32   32.07
  28   2   3   20.21    7.44
  30  -2   3   -2.64    2.59
 -30  -2  -3   -9.28   35.17
  30   2   3   10.97    6.45
  32  -2   3    8.87    5.68
 -32  -2  -3   13.24   43.17
  32   2   3    3.29    5.12
  34  -2   3    7.39    5.40
  34   2   3    1.16    4.69
  33  -3  -3    8.02    3.42
  33  -3  -3   14.77    5.96
  33   3  -3    1.87    4.05
  33   3  -3    5.04    4.76
 -31  -3   3  -46.38   53.66
  31  -3  -3   17.35    4.10
  31  -3  -3    2.21    3.94
  31   3  -3   11.42    4.51
  31   3  -3    4.78    5.03
 -31   3   3   20.21   33.27
  29  -3  -3   24.47    7.01
  29  -3  -3   18.90    4.22
 -29  -3   3   31.16   45.16
  29   3  -3   22.32    5.93
  29   3  -3    8.57    5.42
 -29   3   3   -1.92   30.72
  27  -3  -3   34.59   23.42
 -27  -3   3   34.26   39.03
 -27  -3   3  -10.87   40.09
  27  -3  -3   29.91    5.07
 -27  -3   3   19.60    4.03
  27  -3  -3   25.93    6.58
  27   3  -3   30.61    8.12
 -27   3   3   18.41   27.01
  27   3  -3   29.73    2.98
  27   3  -3   21.88    5.45
  25  -3  -3   65.60    9.70
 -25  -3   3   62.24    6.61
  25  -3  -3   60.74    5.96
 -25  -3   3   11.34   33.46
  25  -3  -3   64.11   23.16
 -25  -3   3   25.85   41.13
 -25  -3   3   42.79    4.97
  25   3  -3   62.41    4.55
 -25   3   3   84.55   28.14
  25   3  -3   68.98   11.84
  25   3  -3   57.38    8.33
 -23  -3   3  114.88    8.17
  23  -3  -3   89.74   23.40
 -23  -3   3   88.89    8.72
 -23  -3   3  116.18   35.24
  23  -3  -3  100.82    7.79
  23   3  -3  103.75    6.53
  23   3  -3  104.66   11.40
  23   3  -3  115.96    9.80
 -23   3   3  168.96   30.84
  21  -3  -3  119.47   23.95
 -21  -3   3  104.95    9.79
 -21  -3   3  123.82    8.60
  21  -3  -3  121.36    8.26
  21   3  -3  112.35    9.48
  21   3  -3   65.33   26.68
  21   3  -3  118.42   11.40
 -21   3   3  112.74   28.18
  21   3  -3  111.90    6.91
  19  -3  -3  233.46   29.23
 -19  -3   3  280.77   16.70
  19  -3  -3  246.92   13.68
 -19  -3   3  201.13   39.16
 -19  -3   3  258.24   14.26
  19   3  -3  231.74   14.71
  19   3  -3  250.34   39.37
 -19   3   3  245.53   35.29
  19   3  -3  238.46   12.27
  19   3  -3  228.14   16.52
 -17  -3   3  417.07   21.80
  17  -3  -3  427.12   21.42
 -17  -3   3  384.70   44.50
  17  -3  -3  484.42   39.80
 -17  -3   3  466.51   24.81
 -17   3   3  389.56   39.79
  17   3  -3  441.87   22.73
  17   3  -3  438.12   24.47
  17   3  -3  449.84   45.31
  17   3  -3  445.83   20.23
 -15  -3   3  324.42   17.78
  15  -3  -3  316.63   17.35
 -15  -3   3  363.65   40.70
  15  -3  -3  336.70   33.03
 -15   3   3  344.59   35.67
  15   3  -3  419.18   40.72
  15   3  -3  371.31   18.79
  15   3  -3  363.81   20.10
 -13  -3   3  600.69   28.44
  13  -3  -3  623.36   44.69
  13  -3  -3  617.68   28.26
 -13  -3   3  597.59   50.76
  13   3  -3  594.21   29.87
 -13   3   3  586.83   26.54
  13   3  -3  589.04   28.72
  13   3  -3  661.09   51.87
 -13   3   3  645.14   48.38
  11  -3  -3 1064.07   65.09
  11  -3  -3 1124.49   50.73
 -11  -3   3 1100.23   71.93
 -11  -3   3 1146.39   48.84
 -11   3   3 1090.14   67.97
 -11   3   3 1103.64   47.72
  11   3  -3 1088.41   70.62
  -9  -3   3  880.94   40.29
   9  -3  -3  903.61   57.18
  -9  -3   3  908.63   61.46
   9   3  -3  977.70   61.81
  -9   3   3  899.01   39.95
  -9   3   3  928.70   58.97
  -7  -3   3 2356.02  117.91
   7  -3  -3 2141.12  113.71
   7   3  -3 2277.68  116.43
   5  -3  -3 2837.49  137.76
  -5  -3   3 2740.71  137.18
   5   3  -3 2839.39  137.46
  -5   3   3 2828.41  138.72
  -3  -3   3 2691.11  131.88
   3  -3  -3 2994.83  136.78
   3   3  -3 2700.57  131.39
  -3   3   3 2527.68  132.81
   1  -3  -3 7322.34  313.54
  -1  -3   3 6996.28  307.49
  -1   3   3 7152.55  313.11
   1   3  -3 6825.02  306.42
  -1  -3  -3 2613.52  131.50
   1  -3   3 2568.81  124.12
   1   3   3 2675.88  131.82
  -1   3  -3 2666.35  124.20
  -3  -3  -3 2169.15  112.43
   3  -3   3 2223.97  103.07
   3   3   3 2099.60  112.29
  -3   3  -3 2086.68  101.54
   5  -3   3 3739.83  171.55
  -5  -3  -3 4015.02  186.21
  -5   3  -3 3885.15  171.19
   5   3   3 3962.71  186.62
   7  -3   3 2106.98   97.17
  -7  -3  -3 2071.03  112.41
  -7   3  -3 2071.54   95.62
   7   3   3 2185.54  114.96
   9  -3   3  533.95   28.66
   9  -3   3  527.17   21.10
  -9  -3  -3  531.04   23.98
   9  -3   3  493.42   23.67
  -9  -3  -3  501.06   25.64
  -9  -3  -3  533.44   24.38
  -9  -3  -3  443.39   41.31
   9   3   3  420.94   41.66
   9   3   3  464.37   25.83
   9   3   3  484.39   24.90
  -9   3  -3  470.37   23.92
  -9   3  -3  431.82   26.35
 -11  -3  -3 1013.33   45.90
 -11  -3  -3 1102.48   48.76
 -11  -3  -3 1056.97   69.94
  11   3   3 1027.48   49.48
  11   3   3 1000.66   47.83
  11   3   3 1115.08   73.90
 -13  -3  -3  719.55   32.00
 -13  -3  -3  622.73   53.19
 -13  -3  -3  734.87   35.05
  13  -3   3  739.34   32.26
 -13  -3  -3  721.50   32.78
 -13  -3  -3  728.57   30.75
 -13   3  -3  654.23   33.17
  13   3   3  731.80   34.72
  13   3   3  718.77   59.41
  13   3   3  635.77   35.64
  15  -3   3  610.50   28.15
 -15  -3  -3  570.37   27.54
 -15  -3  -3  613.70   26.91
 -15  -3  -3  587.54   30.18
 -15  -3  -3  605.83   52.01
 -15  -3  -3  592.34   25.92
  15   3   3  564.22   29.80
  15   3   3  583.94   32.00
  15   3   3  605.01   56.36
 -15   3  -3  552.22   28.78
 -17  -3  -3  405.88   42.17
 -17  -3  -3  413.93   20.07
 -17  -3  -3  412.46   43.93
 -17  -3  -3  435.52   25.23
 -17  -3  -3  406.08   19.25
 -17  -3  -3  423.36   18.82
  17  -3   3  419.27   21.54
 -17   3  -3  397.81   21.96
  17   3   3  367.26   24.44
  17   3   3  401.78   22.91
 -19  -3  -3  257.97   42.10
  19  -3   3  252.06   11.57
 -19  -3  -3  273.03   12.68
 -19  -3  -3  224.96   35.27
 -19  -3  -3  250.13   12.47
  19  -3   3  254.89   15.65
  19  -3   3  256.76   11.68
 -19  -3  -3  254.98   13.09
 -19   3  -3  260.05   15.97
  19   3   3  248.14   18.70
  19   3   3  238.68   16.34
 -21  -3  -3  215.90   11.14
 -21  -3  -3  215.64   10.34
  21  -3   3  206.81   10.70
 -21  -3  -3  190.98   39.93
 -21  -3  -3  265.36   41.48
  21  -3   3  226.37   10.57
  21  -3   3  251.27   15.43
 -21  -3  -3  214.33   10.14
  21   3   3  210.52   17.66
 -21   3  -3  210.99   14.57
 -23  -3  -3   63.39   27.20
  23  -3   3   99.74    6.14
  23  -3   3   94.89    9.82
 -23  -3  -3   95.04   30.31
  23  -3   3  109.15    6.63
  23   3   3   95.70   14.28
 -23   3  -3  111.20    9.88
 -25  -3  -3   12.48   29.81
 -25  -3  -3   58.84   31.98
  25  -3   3   69.33   10.57
  25  -3   3   65.09    4.79
 -25   3  -3   54.26    8.63
 -27  -3  -3  -40.14   30.73
  27  -3   3   43.83    8.42
  27   3   3   37.13    9.76
 -27   3  -3   43.32    7.60
 -29  -3  -3   31.82   40.60
  29  -3   3   32.70    7.46
  29   3   3   33.61    9.91
 -31  -3  -3    9.14   48.90
  31  -3   3   15.58    5.91
  31   3   3    9.82    6.84
  33  -3   3    4.28    4.76
  33   3   3    9.66    6.93
  34  -4  -3    7.94    5.48
  34  -4  -3    0.02    2.54
  34   4  -3    1.37    3.91
  34   4  -3    0.97    4.79
  32  -4  -3    3.91    2.92
  32  -4  -3    1.62    4.01
  32   4  -3   -0.23    3.54
  32   4  -3    3.36    5.00
 -30  -4   3    7.49   66.38
  30  -4  -3    5.82    3.12
  30  -4  -3    4.39    4.24
 -30   4   3   30.03   23.78
  30   4  -3   10.60    5.33
  30   4  -3    5.29    4.28
  28  -4  -3    4.62    2.78
 -28  -4   3    0.08    1.25
 -28  -4   3    1.04    2.13
 -28  -4   3   -4.71   50.79
  28  -4  -3   14.06    5.45
  28   4  -3    8.42    4.50
  28   4  -3    5.03    4.09
 -28   4   3  -10.52   24.34
 -26  -4   3  -51.01   42.29
  26  -4  -3   16.59    4.01
  26  -4  -3   17.02    5.80
 -26  -4   3   26.04   37.08
  26  -4  -3   49.33   21.38
 -26  -4   3   24.41    5.25
 -26   4   3    8.80   23.84
  26   4  -3   11.65    5.84
  26   4  -3   20.67    5.28
  24  -4  -3   28.71    4.87
 -24  -4   3   41.64    7.36
 -24  -4   3   62.36   42.66
 -24  -4   3   38.66    5.89
  24  -4  -3   50.55   19.36
 -24   4   3   20.60   23.26
  24   4  -3   27.05    7.49
  24   4  -3   28.49    6.21
  24   4  -3   28.03    2.11
 -22  -4   3   10.74   26.18
  22  -4  -3   20.73    4.22
 -22  -4   3   19.84    4.13
  22  -4  -3   15.79   16.98
 -22  -4   3   18.77    5.18
 -22   4   3   16.89   19.08
  22   4  -3   26.88    6.82
  22   4  -3   17.37    4.89
  22   4  -3   22.05    2.07
 -20  -4   3   15.21    5.08
  20  -4  -3  -15.54   14.08
  20  -4  -3   13.87    3.42
 -20  -4   3   20.70    4.06
 -20  -4   3   38.40   25.17
  20   4  -3   16.65    1.91
  20   4  -3   23.66    5.19
 -20   4   3    0.02   15.84
  20   4  -3   21.01    6.14
  20   4  -3   -6.50   19.67
  18  -4  -3   24.71   15.38
  18  -4  -3   45.18    5.98
 -18  -4   3   50.61    6.64
 -18  -4   3   31.93   20.52
 -18  -4   3   46.15    7.94
  18   4  -3   48.42    7.39
 -18   4   3   14.65   14.87
  18   4  -3   43.71    8.25
  18   4  -3   40.83    3.16
  18   4  -3   14.33   14.35
 -16  -4   3   51.82    8.53
 -16  -4   3   54.19    5.30
  16  -4  -3   49.72   16.52
  16  -4  -3   41.55    4.72
 -16  -4   3   44.28   22.04
  16   4  -3   51.77    7.93
  16   4  -3   54.94    7.59
  16   4  -3   51.44   21.61
 -16   4   3   47.87   17.35
  14  -4  -3   45.23    5.76
  14  -4  -3   17.16   12.01
 -14  -4   3   56.83   21.29
 -14  -4   3   46.10    4.85
  14   4  -3   45.03    6.46
 -14   4   3   28.26   14.78
  14   4  -3   10.03   15.18
  14   4  -3   39.77    6.64
  12  -4  -3   11.00   11.00
 -12  -4   3    7.99   13.49
 -12  -4   3   12.96    2.96
  12  -4  -3    8.72    2.65
  12   4  -3    6.03   12.90
  12   4  -3    1.87    1.94
 -12   4   3    8.76   12.98
  12   4  -3    1.92    2.26
  10  -4  -3    6.67    8.68
  10  -4  -3    9.55    2.82
 -10  -4   3   -5.58   10.70
 -10  -4   3    9.42    2.75
  10   4  -3   18.96   13.40
 -10   4   3   24.80   14.14
  10   4  -3   19.35    3.93
  10   4  -3   19.75    3.94
  -8  -4   3  112.61   23.23
  -8  -4   3   73.41    5.93
   8  -4  -3   83.71    6.51
   8  -4  -3   79.41    6.29
   8  -4  -3   59.37   17.16
  -8   4   3   80.09    5.98
   8   4  -3   74.21    6.23
   8   4  -3   78.36    6.52
  -8   4   3  100.74   21.99
   8   4  -3   67.18   17.85
  -6  -4   3   26.92    4.19
   6  -4  -3   14.50   10.70
  -6  -4   3   35.60    3.45
   6  -4  -3   36.99    4.38
  -6  -4   3   27.58   13.28
   6  -4  -3   30.83    4.82
   6   4  -3   45.93    4.51
   6   4  -3   45.87   15.57
   6   4  -3   45.59    3.59
   6   4  -3   42.88    4.37
  -6   4   3   41.80    4.34
   4  -4  -3   17.01    3.85
  -4  -4   3   16.35    2.58
   4  -4  -3   19.28   11.38
   4  -4  -3   17.64    3.59
  -4  -4   3    7.48    9.19
  -4  -4   3   17.55    2.99
  -4   4   3   14.01    9.96
  -4   4   3   19.06    3.85
   4   4  -3   19.28    3.50
   4   4  -3   16.13    3.09
   4   4  -3   18.18    2.95
   4   4  -3   14.96   10.14
   2  -4  -3  139.87    9.39
  -2  -4   3  151.21    7.34
   2  -4  -3  138.76   25.88
  -2  -4   3  204.42   22.46
   2  -4  -3  152.80    9.91
  -2  -4   3  148.61    8.34
   2   4  -3  122.32    8.24
   2   4  -3  136.35    8.08
  -2   4   3  151.90   25.32
   2   4  -3  146.01   22.57
  -2   4   3  124.61    8.97
   2   4  -3  116.17    7.72
   0  -4   3  332.11   29.32
   0  -4   3  340.37   15.21
   0  -4  -3  325.70   18.12
   0  -4  -3  355.89   34.93
   0  -4  -3  332.89   18.71
   0  -4   3  347.54   16.60
   0   4  -3  356.78   15.91
   0   4  -3  351.81   16.99
   0   4   3  333.17   18.32
   0   4  -3  358.50   17.10
   0   4   3  391.59   35.35
   0   4   3  338.23   18.30
   0   4  -3  335.32   29.09
   2  -4   3   33.30    2.11
  -2  -4  -3   33.15    5.30
   2  -4   3   34.39    3.13
   2  -4   3   33.38    9.93
  -2  -4  -3   18.81   10.36
  -2  -4  -3   29.30    5.20
   2   4   3   25.25   11.26
   2   4   3   43.57    4.80
  -2   4  -3   27.75    9.68
  -2   4  -3   36.25    3.41
  -2   4  -3   37.49    3.85
   2   4   3   46.56    6.78
  -4  -4  -3   38.79   13.48
   4  -4   3   10.21    7.01
  -4  -4  -3   17.39    4.09
   4  -4   3   18.23    2.70
   4  -4   3   16.63    3.27
  -4  -4  -3   11.79    3.53
   4  -4   3   15.84    1.38
  -4   4  -3   28.87    4.17
   4   4   3   32.34    5.54
  -4   4  -3   29.72    9.62
   4   4   3   23.05    4.54
   4   4   3   22.40   14.58
  -6  -4  -3   58.54   18.21
   6  -4   3   57.39   11.48
   6  -4   3   48.33    3.43
   6  -4   3   53.76    3.01
  -6  -4  -3   49.53    5.05
  -6  -4  -3   45.07    6.97
   6  -4   3   39.26    4.17
  -6  -4  -3   49.14    5.27
   6   4   3   37.32   15.82
  -6   4  -3   35.79    4.35
   6   4   3   36.27    5.67
  -6   4  -3   33.87    9.09
   6   4   3   35.83    6.33
  -8  -4  -3  119.94    8.86
   8  -4   3  114.15   13.45
  -8  -4  -3  125.67    9.82
   8  -4   3  110.63    8.40
   8  -4   3  113.32    6.13
   8  -4   3  109.20    5.94
  -8  -4  -3  111.43    8.23
  -8  -4  -3  106.90   24.23
   8   4   3  111.30    8.89
   8   4   3  109.39    9.69
  -8   4  -3  132.87   13.51
   8   4   3  130.42   27.80
  -8   4  -3  118.23    8.33
 -10  -4  -3   -0.62   11.94
  10  -4   3   -1.61    4.57
  10  -4   3    6.37    1.56
 -10  -4  -3    4.84    3.10
  10  -4   3    0.12    5.62
 -10  -4  -3    5.69    2.31
 -10  -4  -3    8.03    2.79
 -10   4  -3   -0.11    1.26
  10   4   3    1.30    2.10
  10   4   3    0.58    1.99
  10   4   3    5.83   13.09
  12  -4   3    2.67    0.87
 -12  -4  -3   -9.94   13.05
 -12  -4  -3    2.81    1.12
  12  -4   3    3.24    1.53
 -12  -4  -3    2.46    2.49
 -12  -4  -3    5.40    2.18
 -12  -4  -3    3.56    2.39
 -12   4  -3    4.28    2.30
  12   4   3    4.15    3.20
  12   4   3   40.35   20.03
  12   4   3   12.83    3.73
 -14  -4  -3   35.30    4.81
  14  -4   3   32.51    3.69
 -14  -4  -3   35.35    5.71
 -14  -4  -3   45.10    7.45
 -14  -4  -3   25.66   18.90
 -14  -4  -3   30.20    2.50
 -14   4  -3   23.99    4.72
  14   4   3   20.58   18.41
  14   4   3   21.51    5.17
  14   4   3   23.08    6.20
  16  -4   3   51.45    5.11
 -16  -4  -3   49.62    3.29
 -16  -4  -3   44.19    6.31
 -16  -4  -3   49.30    4.78
 -16  -4  -3   42.45   21.55
 -16   4  -3   42.96    6.55
  16   4   3   64.31   10.30
  16   4   3   61.46    8.77
 -18  -4  -3   18.18    3.39
  18  -4   3   20.80    4.44
 -18  -4  -3   -9.44   14.41
 -18  -4  -3   14.56    1.62
 -18  -4  -3   38.60   25.28
 -18  -4  -3   10.89    3.25
  18   4   3    7.83    4.29
 -18   4  -3   14.06    4.14
 -20  -4  -3   17.73    3.16
 -20  -4  -3   18.99    3.92
 -20  -4  -3   20.04   20.86
 -20  -4  -3  -16.39   19.25
  20  -4   3   15.34    4.19
  20   4   3   18.62    6.61
 -20   4  -3   25.11    5.83
 -22  -4  -3    8.72   23.94
 -22  -4  -3   -7.00   24.91
  22  -4   3   24.34    5.33
 -22  -4  -3   35.11    3.88
 -22  -4  -3   34.69    3.39
 -22   4  -3   35.43    6.81
  22   4   3   43.29   10.17
 -24  -4  -3    3.15    1.26
  24  -4   3   17.36    4.99
 -24  -4  -3  -24.46   26.89
 -24  -4  -3  -29.03   28.03
  24   4   3    4.31    4.87
 -24   4  -3   19.13    5.20
  26  -4   3   13.45    4.34
 -26  -4  -3  -33.93   33.72
 -26   4  -3    3.66    3.30
  26   4   3    4.50    4.42
  28  -4   3   13.01    4.85
 -28  -4  -3   69.18   44.70
  28   4   3   13.11    6.29
 -28   4  -3   10.25    4.65
  30  -4   3    7.08    4.61
 -30  -4  -3   -4.92   53.79
  30   4   3   -0.94    4.19
  32  -4   3    1.77    3.93
  32   4   3   11.92    6.08
  33  -5  -3    7.16    3.29
  33  -5  -3    1.61    3.96
  33   5  -3    4.74    4.91
  33   5  -3    8.57    6.70
  31  -5  -3   23.19    7.15
  31  -5  -3   11.12    3.63
  31   5  -3    7.02    6.53
  31   5  -3    6.12    4.99
  29  -5  -3   20.53    4.48
 -29  -5   3  -10.98   68.20
  29  -5  -3   19.96    6.60
 -29  -5   3    0.08    1.83
  29   5  -3    4.79    5.28
  29   5  -3   16.54    5.41
  27  -5  -3   27.94   18.46
 -27  -5   3   25.23    6.33
  27  -5  -3   31.17    5.35
  27  -5  -3   37.52    8.39
  27   5  -3   29.87    8.24
  27   5  -3   26.56    6.58
 -27   5   3   40.86   23.95
 -25  -5   3   36.98   38.73
 -25  -5   3   88.50   52.24
  25  -5  -3   52.82   20.46
  25  -5  -3   53.99    5.63
 -25  -5   3   54.72    9.07
  25   5  -3   54.53    9.59
 -25   5   3   21.31   22.83
  25   5  -3   45.89    9.85
 -23  -5   3    0.81   41.59
 -23  -5   3  -21.71   29.92
  23  -5  -3   51.32   20.08
  23  -5  -3   56.21    5.69
 -23  -5   3   48.93    8.53
  23   5  -3   77.56   10.71
 -23   5   3   69.15   23.64
  23   5  -3   47.57   10.16
 -21  -5   3  101.24   10.67
 -21  -5   3   27.61   37.94
 -21  -5   3  183.76   42.48
  21  -5  -3   81.33   21.57
  21  -5  -3   97.52    7.63
 -21   5   3   88.73   24.82
  21   5  -3   94.72   10.88
  21   5  -3   82.43    9.12
 -19  -5   3  145.55   13.15
 -19  -5   3  170.37   12.68
  19  -5  -3  155.87   10.36
  19  -5  -3  106.51   24.36
 -19  -5   3  161.49   36.69
  19   5  -3  158.48   12.29
 -19   5   3  141.72   27.03
  19   5  -3  154.16   13.66
 -17  -5   3  184.61   15.36
 -17  -5   3  238.52   40.44
 -17  -5   3  247.22   13.84
  17  -5  -3  237.93   29.92
  17  -5  -3  205.39   12.73
  17   5  -3  212.97    9.78
  17   5  -3  208.71   15.85
  17   5  -3  230.09   14.88
 -17   5   3  183.82   29.46
  17   5  -3  207.39    9.69
  17   5  -3  200.33   36.76
 -15  -5   3  285.50   19.17
 -15  -5   3  264.15   44.25
 -15  -5   3  264.56   15.97
  15  -5  -3  312.36   33.86
  15   5  -3  297.80   44.92
 -15   5   3  249.44   35.18
  15   5  -3  283.28   12.94
  15   5  -3  307.87   18.82
  15   5  -3  279.69   17.27
  13  -5  -3  454.47   22.21
 -13  -5   3  411.36   47.78
 -13  -5   3  438.38   22.16
 -13  -5   3  457.88   25.63
  13  -5  -3  448.73   39.45
  13   5  -3  413.73   44.87
  13   5  -3  413.28   19.11
  13   5  -3  425.59   23.06
 -13   5   3  384.07   39.37
  13   5  -3  412.58   23.86
 -11  -5   3  662.66   55.70
  11  -5  -3  574.18   47.13
  11  -5  -3  608.96   28.49
 -11  -5   3  588.72   28.08
 -11  -5   3  636.92   28.44
 -11   5   3  565.88   26.20
 -11   5   3  456.98   44.88
  11   5  -3  585.64   29.86
  11   5  -3  582.80   29.09
  11   5  -3  563.88   25.60
  11   5  -3  536.07   49.44
  -9  -5   3  718.69   33.18
   9  -5  -3  691.37   33.85
   9  -5  -3  774.03   54.60
  -9  -5   3  681.50   33.29
  -9  -5   3  683.84   56.49
   9  -5  -3  698.68   34.60
   9   5  -3  705.50   34.37
  -9   5   3  886.20   58.28
   9   5  -3  793.54   31.75
  -9   5   3  683.45   32.60
   9   5  -3  705.24   34.75
   9   5  -3  717.44   57.00
   7  -5  -3  785.18   36.86
   7  -5  -3  804.65   36.57
  -7  -5   3  764.46   58.05
  -7  -5   3  818.26   35.08
   7  -5  -3  757.18   56.70
  -7  -5   3  775.68   35.50
   7   5  -3  669.70   55.23
  -7   5   3  746.88   55.97
   7   5  -3  763.66   36.38
  -7   5   3  749.68   35.43
   7   5  -3  787.15   36.40
  -5  -5   3  430.01   40.61
  -5  -5   3  503.31   22.48
   5  -5  -3  493.26   23.66
   5  -5  -3  466.52   42.79
   5  -5  -3  503.37   24.54
  -5  -5   3  496.77   23.24
   5  -5  -3  501.25   24.80
   5   5  -3  498.88   42.79
   5   5  -3  457.35   22.09
   5   5  -3  463.72   23.74
  -5   5   3  441.07   41.85
   5   5  -3  432.37   23.35
  -5   5   3  481.40   23.84
  -3  -5   3 1022.28   64.84
   3  -5  -3 1011.44   45.68
   3  -5  -3  959.84   45.04
  -3  -5   3  999.19   43.52
   3  -5  -3 1117.09   69.44
  -3   5   3  876.15   65.70
   3   5  -3  938.76   43.60
  -3   5   3  950.36   44.72
   3   5  -3 1030.64   64.91
   1  -5  -3  870.39   62.66
  -1  -5   3  844.60   37.71
   1  -5  -3  846.47   40.36
  -1  -5   3  785.09   55.18
  -1   5   3  899.11   40.21
  -1   5   3  861.78   39.76
   1   5  -3  868.80   37.55
   1   5  -3  800.36   38.32
   1   5  -3  799.18   55.30
  -1   5   3  895.79   63.09
  -1  -5  -3  954.55   44.05
   1  -5   3  896.55   57.71
  -1  -5  -3  940.44   66.31
  -1   5  -3  948.26   58.34
  -1   5  -3  946.95   39.68
   1   5   3  915.92   43.06
   1   5   3  947.93   66.70
   1   5   3  913.26   43.24
  -1   5  -3  876.92   41.09
   3  -5   3  682.97   32.38
   3  -5   3  741.37   31.79
  -3  -5  -3  731.67   57.36
  -3  -5  -3  764.55   35.89
   3  -5   3  771.87   48.34
  -3  -5  -3  764.35   34.86
   3  -5   3  744.41   30.59
  -3   5  -3  679.47   32.81
   3   5   3  687.82   34.51
   3   5   3  649.22   55.49
  -3   5  -3  616.63   45.36
   3   5   3  663.20   34.61
  -5  -5  -3 1362.96   60.39
   5  -5   3 1295.51   70.50
  -5  -5  -3 1269.10   84.43
   5  -5   3 1278.58   57.88
  -5   5  -3 1228.08   69.50
   5   5   3 1319.38   87.23
   5   5   3 1334.97   59.36
  -7  -5  -3 1029.82   48.12
  -7  -5  -3 1054.99   46.36
   7  -5   3 1003.22   42.99
  -7  -5  -3 1000.36   71.83
  -7  -5  -3  991.20   46.66
   7  -5   3  986.03   60.70
   7  -5   3  996.28   42.51
   7  -5   3  977.00   55.65
   7   5   3 1039.16   76.45
   7   5   3  995.03   48.05
   7   5   3  937.88   46.82
   9  -5   3  606.16   40.67
   9  -5   3  648.62   27.91
   9  -5   3  643.05   27.84
  -9  -5  -3  673.61   33.35
   9  -5   3  625.31   37.84
  -9  -5  -3  711.36   58.85
  -9  -5  -3  674.96   32.12
  -9  -5  -3  628.58   30.88
   9   5   3  639.67   33.60
   9   5   3  524.19   55.03
  -9   5  -3  616.80   30.73
   9   5   3  570.77   31.89
 -11  -5  -3  600.78   30.61
  11  -5   3  640.33   34.88
 -11  -5  -3  617.31   33.07
 -11  -5  -3  646.17   32.15
 -11  -5  -3  621.66   56.87
  11  -5   3  649.24   28.21
  11  -5   3  667.27   34.75
  11  -5   3  611.02   27.58
  11   5   3  616.82   32.75
  11   5   3  664.38   63.37
  11   5   3  664.06   34.64
 -11   5  -3  655.98   31.60
 -13  -5  -3  539.06   31.19
 -13  -5  -3  601.47   25.44
 -13  -5  -3  562.89   57.13
 -13  -5  -3  607.97   29.01
  13  -5   3  595.12   25.56
 -13  -5  -3  483.90   29.27
  13  -5   3  647.93   27.22
  13   5   3  596.97   31.49
  13   5   3  604.14   33.21
  13   5   3  633.29   61.58
 -13   5  -3  623.76   30.36
 -15  -5  -3  495.55   25.79
 -15  -5  -3  491.26   54.71
 -15  -5  -3  456.86   23.87
  15  -5   3  481.95   20.66
 -15  -5  -3  464.69   20.22
  15  -5   3  485.51   23.08
  15   5   3  485.42   29.05
 -15   5  -3  488.85   25.83
 -17  -5  -3  144.68   32.18
  17  -5   3  152.50   10.08
 -17  -5  -3  167.68   11.80
 -17  -5  -3  155.62   10.10
 -17  -5  -3  192.40   43.77
 -17   5  -3  156.70   12.09
  17   5   3  131.95   13.81
  19  -5   3  182.95   11.80
 -19  -5  -3  165.69   10.89
 -19  -5  -3  180.27   12.32
 -19  -5  -3  150.31   39.08
  19   5   3  166.16   15.85
 -19   5  -3  194.11   13.92
 -21  -5  -3  144.31   40.25
 -21  -5  -3  107.13    7.81
 -21  -5  -3  107.21    8.84
  21  -5   3  124.42    9.58
 -21  -5  -3   80.96   33.75
  21   5   3  114.60   13.37
 -21   5  -3  107.47   10.47
 -23  -5  -3   81.89    7.01
  23  -5   3   75.00    7.94
 -23  -5  -3   -5.87   27.79
 -23  -5  -3   45.51   31.89
  23   5   3   67.95   13.09
 -23   5  -3   80.51    9.17
  25  -5   3   43.18    7.16
 -25  -5  -3   13.31   38.64
 -25  -5  -3   15.52    3.17
 -25  -5  -3  -28.16   42.06
  25   5   3   22.92    7.55
 -25   5  -3   55.38    9.17
 -27  -5  -3   -7.52   40.64
  27  -5   3   39.16    7.80
 -27   5  -3   31.67    7.26
  27   5   3   29.45    9.07
  29  -5   3   15.96    5.43
 -29  -5  -3  -36.07   55.61
  29   5   3   10.99    7.40
  31  -5   3   14.33    5.99
  31   5   3    5.96    5.55
  33  -5   3    3.66    4.09
  33   5   3    6.47    6.73
  32  -6  -3    1.83    3.63
  32  -6  -3    3.91    3.05
  32   6  -3   -0.77    3.41
  32   6  -3    3.90    4.59
  30  -6  -3    3.08    2.61
  30  -6  -3    4.17    4.20
 -30  -6   3    0.49    2.06
  30   6  -3    5.48    4.96
  30   6  -3    8.15    5.99
  28  -6  -3    6.25    3.32
 -28  -6   3    9.89    4.81
  28  -6  -3    6.18    4.65
 -28  -6   3   44.03   60.01
  28   6  -3    8.04    5.49
  28   6  -3    3.39    4.53
 -26  -6   3  -14.54   47.70
  26  -6  -3   17.70   17.89
 -26  -6   3   11.24    4.50
  26  -6  -3   10.94    3.31
  26   6  -3    3.31    4.31
 -26   6   3   -1.49   20.57
  26   6  -3   23.18    6.54
 -24  -6   3   17.88   50.66
 -24  -6   3   -6.27   41.35
  24  -6  -3   17.33    4.04
 -24  -6   3   18.85    6.08
  24  -6  -3   12.40   18.66
  24   6  -3   23.06    6.80
 -24   6   3   21.68   22.92
  24   6  -3    7.11    5.15
 -22  -6   3   35.65   45.24
  22  -6  -3   16.06    3.76
  22  -6  -3   22.52   18.56
 -22  -6   3  -11.45   31.99
 -22  -6   3   16.11    5.58
  22   6  -3    6.22    4.81
 -22   6   3  -20.13   20.37
  22   6  -3    6.31    4.03
  20  -6  -3   17.14   18.68
 -20  -6   3  -15.88   27.71
 -20  -6   3   15.41    5.79
  20  -6  -3   16.02    3.89
 -20  -6   3   -6.06   36.82
 -20   6   3   10.70   20.04
  20   6  -3   12.56    4.81
  20   6  -3   20.08    6.39
 -18  -6   3   17.23    6.11
 -18  -6   3  -39.23   32.51
 -18  -6   3   20.96   25.33
  18  -6  -3    9.18   17.01
  18  -6  -3   18.98    4.26
 -18   6   3   44.34   20.14
  18   6  -3   14.32    5.29
  18   6  -3   26.80    6.46
  16  -6  -3   40.15    6.01
 -16  -6   3   37.34    7.94
  16  -6  -3   35.47   17.48
 -16  -6   3   73.37   32.76
 -16  -6   3   16.74   17.10
  16   6  -3   28.74    6.65
 -16   6   3   38.06   19.29
  16   6  -3   36.89    7.25
 -14  -6   3  125.52   34.47
 -14  -6   3   98.60    7.95
  14  -6  -3  123.68   25.71
 -14  -6   3   75.56   11.19
  14  -6  -3   87.64    7.66
  14   6  -3   94.46    8.83
  14   6  -3   79.98    4.71
 -14   6   3   83.47   24.90
  14   6  -3   73.58    8.86
  12  -6  -3   64.53    6.67
 -12  -6   3   72.35    6.37
  12  -6  -3   46.77   18.44
 -12  -6   3   60.99    6.10
  12  -6  -3   57.48    6.14
 -12  -6   3   80.13   11.12
 -12  -6   3   50.57   21.73
  12   6  -3   55.32    4.08
  12   6  -3   67.15    7.14
  12   6  -3   66.30    7.57
 -12   6   3   81.29   23.26
 -10  -6   3   32.96   19.00
 -10  -6   3   19.10    3.88
 -10  -6   3   21.35    4.18
  10  -6  -3   32.36    5.75
  10  -6  -3   31.09    5.73
  10  -6  -3   16.57   14.20
  10   6  -3   18.51    4.73
  10   6  -3   29.80    2.87
 -10   6   3   34.12   17.24
  10   6  -3   29.79    5.91
  10   6  -3   38.75   18.45
  -8  -6   3   99.09   24.85
   8  -6  -3   87.25    8.18
   8  -6  -3   84.41   24.17
   8  -6  -3   86.41    7.86
  -8  -6   3   90.58    7.18
  -8  -6   3   86.36    6.86
  -8   6   3   74.78   24.45
   8   6  -3  122.80   28.49
   8   6  -3  103.39    6.28
   8   6  -3   92.37    8.16
  -8   6   3   97.33    7.14
   8   6  -3   93.81    8.46
   6  -6  -3   54.61    6.19
  -6  -6   3   72.07    5.49
  -6  -6   3   61.46    5.48
   6  -6  -3   64.87    6.74
  -6  -6   3   69.32   21.42
   6  -6  -3   25.21   16.11
   6   6  -3   49.18   18.26
   6   6  -3   56.34    6.15
   6   6  -3   52.20    5.90
  -6   6   3   56.85    5.62
   6   6  -3   54.19    4.63
   4  -6  -3   -0.58    1.36
   4  -6  -3    1.10    1.85
  -4  -6   3   -0.32    1.25
  -4  -6   3    0.35   10.84
  -4  -6   3   -0.17    0.99
   4  -6  -3   -4.02   12.69
   4   6  -3    2.24    2.15
   4   6  -3   -3.90   10.57
  -4   6   3    8.08   13.14
  -4   6   3    2.73    2.13
   4   6  -3    1.66    1.39
   4   6  -3    3.08    2.12
  -2  -6   3    0.98    1.13
   2  -6  -3    2.58    2.18
   2  -6  -3    3.62   12.81
   2  -6  -3    0.70    1.27
  -2  -6   3    3.19    1.86
  -2  -6   3    6.73   10.18
   2  -6  -3    5.52    2.61
  -2   6   3   -0.75    1.43
   2   6  -3   14.75   12.21
   2   6  -3   -0.77    0.89
   2   6  -3    1.02    1.40
   2   6  -3    0.34    1.55
  -2   6   3  -21.33   12.11
  -2   6   3   -1.20    1.36
   0  -6  -3   24.01   16.12
   0  -6  -3   30.83    5.85
   0  -6  -3   31.39    5.86
   0  -6   3   30.23    4.24
   0  -6   3   27.49   13.91
   0  -6  -3   27.80    4.18
   0  -6   3   25.41    2.85
   0   6   3   44.18    6.78
   0   6  -3   27.13    4.15
   0   6   3   34.60    6.20
   0   6  -3   28.74    3.33
   0   6   3   17.63   15.48
   0   6  -3   34.39    5.28
   2  -6   3   13.80    2.90
   2  -6   3   18.69    9.92
   2  -6   3   11.70    2.35
  -2  -6  -3   10.69   14.36
  -2  -6  -3   13.67    2.84
  -2  -6  -3    6.21    3.05
  -2  -6  -3   12.86    3.88
   2   6   3   30.55    6.02
  -2   6  -3   26.19    4.34
   2   6   3   28.43    5.52
   2   6   3    3.18   15.47
  -4  -6  -3   16.48    4.48
  -4  -6  -3    8.30   16.49
   4  -6   3   12.58    2.33
  -4  -6  -3    4.60    3.00
   4  -6   3    7.62    8.97
   4  -6   3   10.52    2.36
   4  -6   3   30.31   16.26
   4   6   3    2.55    2.68
   4   6   3    9.77   17.05
   4   6   3    4.57    2.85
  -6  -6  -3   78.61    7.26
  -6  -6  -3  103.00   28.70
   6  -6   3   76.06   20.18
  -6  -6  -3   67.33    8.00
  -6  -6  -3   64.88    7.30
   6  -6   3   71.19   15.93
   6  -6   3   73.26    5.11
   6  -6   3   82.03    5.70
   6   6   3   79.50    8.52
   6   6   3   92.90    8.32
   6   6   3   73.73   24.26
  -6   6  -3   73.55    6.83
   8  -6   3  111.09    6.95
  -8  -6  -3  106.90   29.30
   8  -6   3  123.79   22.12
  -8  -6  -3  122.66   10.82
  -8  -6  -3  115.59   10.08
  -8  -6  -3  120.48    9.52
   8  -6   3  134.38   20.47
   8  -6   3  120.58    7.31
   8   6   3  106.93    9.97
  -8   6  -3  119.62    9.27
   8   6   3   99.61   30.77
   8   6   3  105.04   10.62
  10  -6   3   14.67    2.50
 -10  -6  -3   12.14    3.54
 -10  -6  -3   22.46   20.24
 -10  -6  -3    7.97    4.06
  10  -6   3   -0.43    8.18
 -10  -6  -3   15.50    4.55
 -10  -6  -3   16.84    2.40
  10  -6   3   18.06    2.92
  10  -6   3    2.85    9.64
  10   6   3   11.43    4.84
  10   6   3   13.10   22.61
  10   6   3   18.54    5.18
 -10   6  -3   16.15    4.08
 -12  -6  -3   52.47    5.74
  12  -6   3   41.24   10.05
  12  -6   3   64.08   10.82
 -12  -6  -3   43.02    3.19
 -12  -6  -3   57.87    8.78
  12  -6   3   59.39    4.62
 -12  -6  -3   47.75   23.74
  12  -6   3   49.74    3.95
  12   6   3   52.51    9.87
  12   6   3   69.70   27.30
 -12   6  -3   61.05    8.33
 -14  -6  -3   71.44   28.82
  14  -6   3   63.22    5.33
 -14  -6  -3   75.46   10.00
  14  -6   3   71.09    4.68
 -14  -6  -3   69.67    6.84
  14   6   3   71.71   11.63
 -14   6  -3   78.94    8.04
 -16  -6  -3   30.12    5.45
  16  -6   3   34.82    2.78
 -16  -6  -3   18.94   21.88
 -16  -6  -3   24.82    5.80
  16  -6   3   24.40    4.14
 -16  -6  -3   35.27   31.22
 -16   6  -3   25.82    5.88
  16   6   3   34.32    8.66
 -18  -6  -3   15.21    4.68
 -18  -6  -3    8.51   26.04
 -18  -6  -3    8.74   23.34
 -18  -6  -3   19.17    4.27
  18  -6   3   19.44    4.09
  18  -6   3   15.89    2.07
 -18   6  -3   10.41    4.15
  18   6   3   12.71    5.76
  20  -6   3    8.22    3.06
 -20  -6  -3    7.86    3.68
  20  -6   3    7.50    1.25
 -20  -6  -3   43.16   27.39
 -20  -6  -3  -22.07   28.45
 -20  -6  -3    7.44    2.87
  20   6   3    4.92    4.84
 -20   6  -3    5.33    4.11
  22  -6   3   16.79    4.46
 -22  -6  -3   21.86    5.37
 -22  -6  -3  -11.34   37.83
 -22  -6  -3   20.57    4.19
 -22  -6  -3   25.42   37.00
  22   6   3   12.08    6.24
 -22   6  -3   24.14    6.43
 -24  -6  -3   17.02    4.09
  24  -6   3   13.60    3.98
 -24  -6  -3  -19.62   39.92
 -24  -6  -3   -5.68   37.40
 -24   6  -3   10.33    4.71
  24   6   3    6.27    4.98
 -26  -6  -3   -1.82    0.90
  26  -6   3   11.81    4.13
 -26  -6  -3   -0.05    1.03
 -26  -6  -3  -35.56   44.73
 -26   6  -3    9.38    4.81
  26   6   3    6.03    4.17
 -28  -6  -3    0.44    0.98
  28  -6   3    2.65    3.50
 -28  -6  -3  -46.66   53.17
  28   6   3    7.04    6.00
  30  -6   3    3.51    3.98
  30   6   3   12.18    7.71
  32  -6   3   -0.58    2.85
  32   6   3   -1.19    4.15
 -31  -7   3   -0.38    1.97
  31  -7  -3    5.18    4.54
  31   7  -3   12.21    6.74
  31   7  -3    0.75    4.01
  29  -7  -3   18.02    5.93
  29  -7  -3    9.86    3.58
 -29  -7   3    2.34    4.06
  29   7  -3    4.01    5.20
  29   7  -3    0.47    4.34
 -27  -7   3 -109.11   72.34
 -27  -7   3   23.48    7.12
  27  -7  -3   23.03    4.69
  27   7  -3    4.93    5.51
  27   7  -3   15.07    6.82
  25  -7  -3   40.44   18.41
 -25  -7   3   28.52   54.93
  25  -7  -3   25.84    5.16
 -25  -7   3   25.58    7.47
  25   7  -3   30.37    9.02
 -25   7   3   12.91   23.20
  25   7  -3   15.41    5.85
 -23  -7   3   47.65   10.03
  23  -7  -3   42.89   22.67
 -23  -7   3   89.66   59.01
 -23  -7   3  -92.03   42.98
  23  -7  -3   55.43    6.05
  23   7  -3   45.32    9.82
 -23   7   3   39.46   26.32
  23   7  -3   39.44    8.63
  21  -7  -3   52.88   23.49
  21  -7  -3   72.09    7.00
 -21  -7   3   31.65   38.71
 -21  -7   3   41.42   53.07
 -21  -7   3   52.98    9.91
 -21   7   3   56.62   26.72
  21   7  -3   61.23   10.47
  21   7  -3   67.66   11.73
 -19  -7   3   73.69   40.01
 -19  -7   3  110.13   14.91
  19  -7  -3   96.02    8.52
 -19  -7   3  152.38   46.14
  19  -7  -3   81.89   25.36
  19   7  -3  104.13   10.96
  19   7  -3   88.32   13.47
 -19   7   3  114.91   29.33
 -17  -7   3  154.26   43.73
  17  -7  -3  156.62   11.53
 -17  -7   3  147.29   50.40
 -17  -7   3  159.45   14.77
  17  -7  -3  171.36   31.83
  17   7  -3  146.40   13.94
 -17   7   3  162.05   32.71
  17   7  -3  162.05   13.55
  15  -7  -3  212.83   13.91
 -15  -7   3  206.16   55.52
 -15  -7   3  220.23   46.53
 -15  -7   3  218.22   17.22
  15  -7  -3  206.97   33.55
  15   7  -3  211.20   16.55
  15   7  -3  202.90   15.47
 -15   7   3  217.28   35.89
  13  -7  -3  295.79   42.81
 -13  -7   3  291.72   21.56
 -13  -7   3  368.73   67.19
  13  -7  -3  343.30   19.16
 -13  -7   3  313.77   52.16
 -13   7   3  334.54   45.98
  13   7  -3  325.76   20.48
  13   7  -3  322.28   14.94
  13   7  -3  347.04   21.66
  11  -7  -3  522.74   27.05
 -11  -7   3  545.64   26.26
 -11  -7   3  501.20   29.84
  11  -7  -3  496.60   50.12
 -11  -7   3  566.63   54.79
 -11  -7   3  492.30   72.60
  11   7  -3  509.18   28.14
  11   7  -3  509.85   23.11
 -11   7   3  465.84   49.86
  11   7  -3  474.79   28.11
   9  -7  -3  658.02   34.78
  -9  -7   3  703.21   33.06
  -9  -7   3  577.54   56.65
   9  -7  -3  586.98   58.03
   9  -7  -3  750.40   35.04
  -9  -7   3  652.66   36.90
  -9  -7   3  701.14   71.83
   9   7  -3  711.27   35.54
  -9   7   3  848.46   64.85
   9   7  -3  710.27   35.66
   9   7  -3  695.07   30.99
  -7  -7   3  807.41   77.70
  -7  -7   3  986.63   72.41
   7  -7  -3  891.64   43.84
   7  -7  -3  940.51   43.71
   7  -7  -3  884.04   68.85
  -7  -7   3  931.40   41.50
   7   7  -3  905.98   43.83
  -7   7   3  931.90   70.77
   7   7  -3  896.98   43.58
   7   7  -3  884.02   40.08
  -5  -7   3  767.33   75.24
   5  -7  -3  805.88   40.54
   5  -7  -3  796.70   65.41
  -5  -7   3  804.50   38.18
  -5  -7   3  836.38   37.65
  -5  -7   3  856.46   65.39
   5  -7  -3  798.80   39.97
   5   7  -3  850.46   37.23
   5   7  -3  819.64   40.00
  -5   7   3  849.37   39.30
   5   7  -3  822.12   39.43
  -5   7   3  832.32   67.61
   3  -7  -3  689.20   38.15
   3  -7  -3  715.52   38.78
  -3  -7   3  740.69   36.36
  -3  -7   3  778.52   72.48
   3  -7  -3  784.93   65.48
  -3  -7   3  770.18   35.71
  -3  -7   3  765.20   60.88
   3   7  -3  842.81   36.31
  -3   7   3  823.64   38.40
  -3   7   3  873.96   67.97
   3   7  -3  833.10   37.42
   3   7  -3  866.16   38.78
   1  -7  -3 1160.60   52.21
  -1  -7   3 1074.33   84.64
  -1  -7   3 1082.09   73.20
   1  -7  -3 1078.65   52.33
  -1  -7   3 1046.60   48.86
   1  -7  -3 1085.85   80.46
  -1  -7   3 1110.53   48.16
  -1   7   3 1093.47   51.82
   1   7  -3 1154.63   49.10
  -1   7   3 1078.89   51.24
  -1   7   3 1043.96   81.59
  -1  -7  -3 1276.97   87.09
  -1  -7  -3 1121.77   54.14
   1  -7   3 1147.79   51.10
   1  -7   3 1246.26   76.31
   1  -7   3 1104.08   83.20
   1  -7   3 1016.66   49.77
  -1  -7  -3 1106.90   50.90
  -1  -7  -3 1130.15   54.95
   1   7   3 1169.11   54.10
  -1   7  -3 1205.95   50.49
   1   7   3 1259.40   88.76
   1   7   3 1231.02   54.84
  -3  -7  -3  941.63   47.71
  -3  -7  -3  988.62   43.37
  -3  -7  -3 1069.85   79.83
   3  -7   3 1023.26   75.14
   3  -7   3 1009.06   64.80
   3  -7   3  958.47   42.65
  -3  -7  -3  941.42   46.95
   3  -7   3  944.07   43.50
   3   7   3  992.40   47.55
   3   7   3  954.30   46.88
   3   7   3  986.59   80.39
  -5  -7  -3 1247.75   85.78
   5  -7   3 1124.97   66.49
   5  -7   3 1034.52   72.65
  -5  -7  -3 1037.08   44.40
  -5  -7  -3  962.03   49.26
   5  -7   3  982.06   44.68
  -5  -7  -3  982.12   48.62
  -5  -7  -3 1005.49   47.74
   5  -7   3  931.98   43.88
   5   7   3  971.22   48.54
   5   7   3 1031.36   49.57
   5   7   3  984.05   83.41
   7  -7   3  925.54   43.81
  -7  -7  -3  988.62   47.67
  -7  -7  -3 1052.42   81.90
   7  -7   3 1025.03   68.29
   7  -7   3 1013.17   62.07
  -7  -7  -3 1211.47   62.93
  -7  -7  -3 1018.92   48.99
  -7  -7  -3  982.71   43.72
   7  -7   3 1026.33   44.55
   7   7   3  968.02   49.63
   7   7   3  963.47   51.60
   7   7   3 1024.59   86.66
  -7   7  -3 1003.56   46.99
   9  -7   3  677.51   45.96
   9  -7   3  679.84   30.86
  -9  -7  -3  647.58   29.81
   9  -7   3  629.31   49.09
   9  -7   3  697.64   31.05
  -9  -7  -3  664.39   35.33
  -9  -7  -3  613.09   62.46
  -9   7  -3  727.23   34.36
   9   7   3  675.10   36.91
   9   7   3  707.96   74.78
 -11  -7  -3  560.96   31.25
  11  -7   3  632.09   39.94
  11  -7   3  532.47   40.60
  11  -7   3  555.28   26.76
  11  -7   3  571.71   26.56
 -11  -7  -3  559.91   25.16
 -11  -7  -3  594.42   62.58
  11   7   3  548.66   32.89
 -11   7  -3  618.79   30.56
  11   7   3  709.87   74.51
 -13  -7  -3  452.88   20.15
  13  -7   3  486.85   30.87
 -13  -7  -3  482.82   27.40
  13  -7   3  491.74   22.37
  13  -7   3  419.79   28.88
 -13  -7  -3  499.23   61.74
  13  -7   3  486.12   23.08
 -13   7  -3  526.24   27.04
  13   7   3  446.24   29.09
  15  -7   3  305.11   15.33
  15  -7   3  286.55   14.41
 -15  -7  -3  295.58   56.34
 -15  -7  -3  306.10   19.70
 -15  -7  -3  253.12   45.09
  15  -7   3  294.66   15.73
 -15   7  -3  281.70   18.70
  15   7   3  253.08   20.84
 -17  -7  -3  188.29   15.08
  17  -7   3  196.02   10.35
 -17  -7  -3  149.75   45.62
  17  -7   3  206.93   12.32
 -17  -7  -3  221.71   45.89
  17  -7   3  198.18   11.89
  17   7   3  196.94   17.80
 -17   7  -3  205.69   15.28
  19  -7   3  130.44    8.88
  19  -7   3  107.50    6.33
 -19  -7  -3  100.55   10.53
 -19  -7  -3  128.89   44.10
 -19   7  -3  100.65   10.92
  19   7   3   90.86   16.01
  21  -7   3   89.88    5.85
 -21  -7  -3  109.43   10.26
  21  -7   3   92.95    5.32
 -21  -7  -3   56.54   43.14
 -21  -7  -3   42.16   36.11
  21  -7   3   99.22    8.30
  21   7   3   68.60   13.17
 -21   7  -3   91.17   10.44
  23  -7   3   71.85    7.40
 -23  -7  -3   41.89   44.92
 -23  -7  -3  -46.38   38.19
 -23  -7  -3   77.48    8.39
  23   7   3   76.71   14.47
 -23   7  -3  101.57   14.08
 -25  -7  -3   43.83    7.24
  25  -7   3   35.17    6.51
 -25  -7  -3   35.55   59.16
  25   7   3   46.95   12.07
 -25   7  -3   32.21    7.63
 -27  -7  -3    2.37   75.59
  27  -7   3   16.00    4.88
  27   7   3   37.94   10.68
  29  -7   3   13.03    4.90
  29   7   3    6.02    6.40
  31  -7   3    4.33    4.30
  31   7   3   -0.19    4.86
 -30  -8   3    0.91    4.07
  30  -8  -3    1.71    4.31
  30   8  -3    0.37    4.49
  30   8  -3    4.27    5.70
  28  -8  -3    9.84    3.73
 -28  -8   3   -0.58    3.96
  28   8  -3    8.78    5.78
  28   8  -3    1.55    4.48
 -26  -8   3  -10.81   72.88
  26  -8  -3   10.83    3.86
 -26  -8   3    9.58    6.17
  26   8  -3    3.52    5.30
  26   8  -3    1.93    4.57
 -24  -8   3    2.12    4.71
 -24  -8   3   41.96   60.38
  24  -8  -3   29.30   21.15
  24  -8  -3    3.06    2.89
  24   8  -3    3.93    4.86
  24   8  -3    0.90    4.13
 -24   8   3   -4.38   27.02
  22  -8  -3   15.81    4.33
 -22  -8   3   22.43   48.93
 -22  -8   3   11.85    6.32
 -22  -8   3   46.36   61.73
  22  -8  -3   26.25   24.80
 -22   8   3   33.56   29.31
  22   8  -3   37.73    9.86
  22   8  -3    7.50    5.01
 -20  -8   3   17.55    6.99
 -20  -8   3   34.14   39.35
  20  -8  -3   12.12    4.07
 -20  -8   3  -18.43   41.81
  20  -8  -3   -3.62   23.51
  20   8  -3    6.67    4.52
 -20   8   3   53.67   28.75
  20   8  -3    6.72    4.69
 -18  -8   3    6.86    4.66
 -18  -8   3   34.92   39.05
 -18  -8   3  -38.83   45.40
  18  -8  -3   19.12    4.80
  18  -8  -3    2.18   21.99
 -18   8   3   21.60   25.67
  18   8  -3    3.20    3.90
  18   8  -3   20.49    6.92
 -16  -8   3   15.16    6.31
 -16  -8   3   47.21   43.92
 -16  -8   3   56.09   35.62
  16  -8  -3   11.58    3.85
  16  -8  -3   16.36   22.11
 -16   8   3    6.60   23.66
  16   8  -3    5.88    4.71
  16   8  -3   10.82    4.47
 -14  -8   3  -23.77   25.44
 -14  -8   3    5.90    4.90
  14  -8  -3   10.83    3.86
  14  -8  -3   32.76   24.53
 -14  -8   3   44.78   39.31
  14   8  -3    9.65    4.33
  14   8  -3    9.09    4.55
 -14   8   3   11.31   23.55
 -12  -8   3   13.99   23.69
  12  -8  -3   20.62   22.07
 -12  -8   3    2.35    3.58
 -12  -8   3   10.87   24.67
  12  -8  -3    3.53    2.93
  12   8  -3    8.97    4.15
  12   8  -3    2.08    3.26
 -12   8   3    1.01   23.96
  12   8  -3    5.09    1.49
  10  -8  -3    6.99    3.33
 -10  -8   3    2.53   21.79
  10  -8  -3   13.82   21.50
 -10  -8   3  -33.18   29.25
 -10  -8   3    9.92    4.72
 -10  -8   3    7.77    2.80
  10   8  -3   10.18    4.45
  10   8  -3    9.13    2.31
 -10   8   3   10.07   19.65
  10   8  -3    4.15    3.36
  -8  -8   3   19.03    4.15
  -8  -8   3   -0.24   27.36
   8  -8  -3   17.21   21.40
  -8  -8   3    8.44   15.46
  -8  -8   3    8.44    4.95
   8  -8  -3    7.69    3.69
  -8   8   3   24.02   22.50
   8   8  -3    8.66    2.34
   8   8  -3    9.82    4.00
   8   8  -3   10.87    3.99
  -6  -8   3   -1.33   25.94
  -6  -8   3   43.90   24.42
  -6  -8   3   25.66    7.01
   6  -8  -3   25.87    5.78
  -6  -8   3   32.37    4.94
   6  -8  -3   31.56   20.25
   6   8  -3   25.62    6.10
   6   8  -3   25.49    4.21
   6   8  -3   20.20    4.78
  -4  -8   3    9.73   14.68
   4  -8  -3    9.29    4.09
   4  -8  -3  -22.79   17.45
  -4  -8   3   24.31   25.99
  -4  -8   3   11.68    2.83
  -4   8   3   14.56   22.19
   4   8  -3   11.34    3.69
   4   8  -3    9.96    2.82
  -2  -8   3   47.23   29.04
   2  -8  -3    8.36   19.21
  -2  -8   3   -4.07   16.08
   2  -8  -3   15.47    5.12
  -2  -8   3   19.52    3.75
   2   8  -3   25.98    4.95
  -2   8   3   22.51    5.11
   2   8  -3   21.28    4.07
  -2   8   3   12.81   21.79
   0  -8  -3   48.07   25.61
   0  -8  -3   37.35    7.20
   0  -8   3   25.16   22.57
   0  -8   3   41.99    4.62
   0  -8   3   36.96    4.12
   0  -8   3   52.26   19.57
   0   8   3   35.74    7.55
   0   8  -3   43.39    5.93
   0   8   3   38.17   26.41
   0   8   3   48.15    7.73
   0   8  -3   43.43    6.36
   2  -8   3   11.75    3.17
   2  -8   3   15.99    3.19
  -2  -8  -3   29.21   22.97
   2  -8   3   13.28   14.23
  -2  -8  -3   10.91    4.39
   2  -8   3   11.51   19.10
   2   8   3    9.35   23.47
   2   8   3   22.84    5.65
   2   8   3   18.96    5.82
  -2   8  -3   20.81    4.65
  -4  -8  -3   17.37    5.34
   4  -8   3   20.03    3.61
   4  -8   3   13.77    3.42
  -4  -8  -3   11.95   21.76
   4  -8   3  -24.12   19.58
  -4  -8  -3   16.69    3.37
   4  -8   3   21.99   14.04
  -4   8  -3   14.66    3.92
   4   8   3   13.64    4.97
   4   8   3    3.22   24.07
  -6  -8  -3   41.76    7.68
   6  -8   3    5.30   17.87
  -6  -8  -3   36.07    3.72
  -6  -8  -3   48.32   29.40
   6  -8   3   32.82    5.00
   6  -8   3   32.85    3.74
   6   8   3   56.65   27.18
  -6   8  -3   37.98    6.71
   6   8   3   26.98    6.62
   8  -8   3   39.42    4.25
  -8  -8  -3   28.68    3.14
  -8  -8  -3    1.67   24.67
   8  -8   3   29.46    4.58
   8  -8   3   50.12   21.07
  -8  -8  -3   23.68    6.10
   8   8   3   35.27    7.62
   8   8   3   41.34   33.79
  -8   8  -3   24.35    5.69
  10  -8   3   -1.27   11.75
 -10  -8  -3   29.10   23.70
  10  -8   3   17.67    3.54
 -10  -8  -3   12.07    2.22
  10  -8   3    4.40   16.09
  10  -8   3   11.00    2.90
 -10  -8  -3   12.53    5.09
  10   8   3   27.48   32.87
 -10   8  -3    7.07    3.34
  10   8   3    9.03    4.75
  12  -8   3   22.30    4.00
 -12  -8  -3   19.70   31.17
 -12  -8  -3   14.05    1.66
  12  -8   3   18.04   12.80
  12  -8   3   20.25    3.59
  12  -8   3   26.30   15.82
 -12  -8  -3   27.14    6.84
  12   8   3   10.46    5.47
 -12   8  -3   25.67    6.04
  14  -8   3   20.32   11.13
  14  -8   3   17.98   10.18
 -14  -8  -3   19.22    5.77
  14  -8   3   28.53    4.21
 -14  -8  -3    4.50   24.78
 -14  -8  -3   16.69   28.91
  14  -8   3   24.58    4.53
 -14   8  -3   14.92    4.88
  14   8   3   27.04    7.87
 -16  -8  -3    2.90   34.49
  16  -8   3   34.31    5.39
  16  -8   3   28.75    4.26
 -16  -8  -3  -40.06   30.00
 -16  -8  -3   26.33    6.51
 -16   8  -3   16.92    5.11
  16   8   3   25.84    7.80
  18  -8   3    3.14    2.48
 -18  -8  -3   43.63   35.64
  18  -8   3   11.07    2.52
  18  -8   3    2.63    2.16
 -18  -8  -3   10.90   39.79
 -18  -8  -3    2.45    3.76
  18  -8   3    9.18    2.70
  18   8   3   18.70    7.08
 -18   8  -3    6.62    4.26
  20  -8   3   16.49    3.77
 -20  -8  -3  -61.40   40.14
 -20  -8  -3  -11.06   40.47
 -20  -8  -3   12.16    5.23
  20  -8   3   19.69    4.76
  20   8   3   13.50    6.84
 -20   8  -3   11.66    4.70
 -22  -8  -3    3.77   48.47
  22  -8   3   18.94    4.25
 -22  -8  -3   19.06    5.85
  22  -8   3   16.16    2.72
 -22  -8  -3   28.12   51.48
  22  -8   3   16.52    3.21
  22   8   3   15.87    7.49
 -22   8  -3   12.39    5.49
  24  -8   3    6.76    3.48
 -24  -8  -3    1.33   54.12
 -24  -8  -3   15.85    4.93
  24  -8   3   15.42    2.75
  24   8   3   14.95    6.95
 -24   8  -3   10.30    5.51
  26  -8   3    4.28    3.29
 -26  -8  -3   12.56    4.66
  26   8   3    6.00    6.29
 -28  -8  -3   -0.40    1.36
  28  -8   3    3.41    3.39
  28   8   3    2.65    5.31
 -27  -9   3    6.24    5.87
  27  -9  -3   16.58    4.75
  27   9  -3   10.34    7.10
  27   9  -3   12.14    6.81
  25  -9  -3   21.47    5.19
 -25  -9   3   17.70    6.67
  25   9  -3   15.71    7.86
  25   9  -3   10.75    6.35
 -23  -9   3  -47.28   65.40
  23  -9  -3   23.67   27.04
 -23  -9   3   34.18    9.22
  23  -9  -3   39.45    7.03
  23   9  -3   34.82    9.88
  23   9  -3   56.22   11.90
 -21  -9   3  -14.06   55.36
 -21  -9   3   66.30   12.31
 -21  -9   3   34.72   67.58
  21  -9  -3   63.42    9.05
  21  -9  -3   55.98   32.20
  21   9  -3   57.16   11.38
  21   9  -3   44.54    9.77
 -21   9   3   82.25   37.64
 -19  -9   3  119.82   66.92
  19  -9  -3   74.71    7.94
  19  -9  -3   34.81   31.45
 -19  -9   3  -59.46   45.62
 -19  -9   3   58.00   11.02
  19   9  -3   64.72   12.32
 -19   9   3   47.83   36.66
  19   9  -3   64.37   11.65
 -17  -9   3   80.24   13.28
  17  -9  -3   67.28   32.14
 -17  -9   3   37.06   58.32
 -17  -9   3  123.38   44.67
  17  -9  -3   90.94    9.24
  17   9  -3   88.85   14.46
  17   9  -3  105.37   14.86
 -17   9   3  108.33   37.69
  15  -9  -3   86.63   34.34
  15  -9  -3  126.15   10.40
 -15  -9   3   63.25   52.44
 -15  -9   3  101.90   14.87
 -15  -9   3   69.88   43.86
  15   9  -3   86.48   13.16
  15   9  -3  102.53   14.38
 -15   9   3   64.21   33.86
  13  -9  -3  129.62   11.14
  13  -9  -3   91.21   35.23
 -13  -9   3  178.84   43.76
 -13  -9   3   66.89   50.79
 -13  -9   3  116.88   16.29
 -13   9   3   91.19   35.64
  13   9  -3  104.50   11.55
  13   9  -3  115.42   11.90
  11  -9  -3  149.77   38.40
  11  -9  -3  177.89   13.84
 -11  -9   3  155.29   39.79
 -11  -9   3  227.61   59.60
 -11  -9   3  155.67   15.22
  11   9  -3  174.83    9.64
  11   9  -3  162.21   14.28
  11   9  -3  162.30   14.19
 -11   9   3  197.35   43.50
   9  -9  -3  220.58   16.03
  -9  -9   3  211.72   17.77
  -9  -9   3  227.42   59.45
   9  -9  -3  245.85   44.95
  -9  -9   3  260.12   50.12
  -9  -9   3  225.33   14.26
  -9   9   3  190.43   43.73
   9   9  -3  225.63   12.42
   9   9  -3  227.79   16.58
   9   9  -3  206.86   16.27
   7  -9  -3  302.68   18.97
   7  -9  -3  199.18   45.52
  -7  -9   3  267.77   20.36
  -7  -9   3  275.96   16.10
  -7  -9   3  230.33   51.15
  -7  -9   3  278.98   49.82
  -7   9   3  261.44   52.16
   7   9  -3  270.35   14.95
   7   9  -3  270.72   18.07
   5  -9  -3  220.74   45.35
  -5  -9   3  265.89   53.93
  -5  -9   3  402.34   47.29
  -5  -9   3  330.54   22.43
   5  -9  -3  325.89   20.74
  -5  -9   3  323.21   17.86
   5   9  -3  313.06   17.32
   5   9  -3  313.77   19.34
  -5   9   3  330.43   56.43
   3  -9  -3  356.47   22.02
  -3  -9   3  349.14   60.90
  -3  -9   3  342.90   18.39
  -3  -9   3  341.91   22.89
   3  -9  -3  340.45   55.56
  -3  -9   3  271.20   46.41
   3   9  -3  340.35   19.42
   3   9  -3  321.04   18.30
  -3   9   3  337.30   58.31
   1  -9  -3  480.95   58.02
   1  -9  -3  462.48   27.73
  -1  -9   3  481.40   23.94
  -1  -9   3  468.47   60.74
  -1  -9   3  507.05   52.27
  -1  -9   3  466.29   28.30
   1   9  -3  473.64   24.45
  -1   9   3  467.52   68.11
   1   9  -3  465.48   24.61
  -1   9   3  482.87   27.76
   1  -9   3  473.97   23.63
   1  -9   3  438.52   62.98
  -1  -9  -3  478.01   28.08
   1  -9   3  451.34   48.51
  -1  -9  -3  391.88   60.56
  -1   9  -3  463.64   24.92
   1   9   3  467.80   27.67
   1   9   3  528.48   64.37
  -1   9  -3  486.74   23.87
  -3  -9  -3  297.53   20.91
   3  -9   3  317.84   17.01
   3  -9   3  344.63   53.07
  -3  -9  -3  264.88   52.68
   3  -9   3  261.57   47.99
   3   9   3  347.49   61.49
  -3   9  -3  317.48   18.79
   3   9   3  330.76   21.45
   5  -9   3  352.85   18.08
  -5  -9  -3  357.19   60.99
   5  -9   3  245.75   45.84
  -5  -9  -3  364.08   23.04
  -5   9  -3  296.36   19.48
   5   9   3  328.55   61.74
   5   9   3  364.12   23.02
  -7  -9  -3  253.49   18.69
  -7  -9  -3  238.67   52.03
   7  -9   3  159.89   36.63
  -7  -9  -3  238.10   13.20
   7  -9   3  234.52   15.43
   7  -9   3  242.63   14.08
   7   9   3  263.74   19.24
   7   9   3  285.50   61.70
  -7   9  -3  264.96   16.89
  -9  -9  -3  201.52   49.56
   9  -9   3  152.91   10.45
   9  -9   3  161.41   28.64
  -9  -9  -3  160.73    9.12
  -9  -9  -3  162.32   14.47
   9  -9   3  153.09   10.27
   9  -9   3  198.76   36.27
   9   9   3  119.73   46.63
  -9   9  -3  168.43   13.06
   9   9   3  151.85   14.70
 -11  -9  -3  169.75   14.87
 -11  -9  -3  184.65   48.75
  11  -9   3  174.17   11.13
  11  -9   3  150.15   26.46
  11  -9   3  166.84   10.99
 -11  -9  -3  165.84    8.94
  11  -9   3  165.26   30.69
 -11   9  -3  185.44   14.17
  11   9   3  186.64   16.60
 -13  -9  -3   79.92   44.41
  13  -9   3  153.53   11.55
 -13  -9  -3  106.93   33.62
  13  -9   3  150.04   24.18
  13  -9   3  149.72    9.89
 -13  -9  -3  155.72   14.09
  13  -9   3  119.41   25.24
  13  -9   3  155.84   10.40
 -13   9  -3  154.34   13.21
  13   9   3  129.44   14.61
  15  -9   3  119.37    8.42
 -15  -9  -3  101.62   50.49
  15  -9   3  119.30    9.74
  15  -9   3  106.45   14.10
  15  -9   3  124.69   16.32
 -15  -9  -3  126.54   12.40
 -15  -9  -3  120.62   41.72
  15  -9   3  112.89    8.99
 -15   9  -3  115.59   11.85
  15   9   3  126.44   14.12
  17  -9   3   82.73    7.43
  17  -9   3   93.57    7.03
 -17  -9  -3   29.60   42.31
 -17  -9  -3   88.49   12.99
  17  -9   3   79.68    6.47
 -17  -9  -3   50.89   46.92
  17  -9   3   75.54    7.28
 -17   9  -3   71.26   10.97
  17   9   3   62.72   12.52
  19  -9   3   51.67    6.16
 -19  -9  -3   36.90   48.76
  19  -9   3   61.08    5.39
  19  -9   3   57.20    6.13
 -19  -9  -3   62.05   10.64
 -19  -9  -3   14.35   50.02
  19  -9   3   54.24    5.71
  19   9   3   51.92   11.92
 -19   9  -3   46.18    9.26
 -21  -9  -3   12.58   54.61
 -21  -9  -3   59.06   58.56
  21  -9   3   68.05    6.29
  21  -9   3   66.97    6.35
 -21  -9  -3   46.62    9.21
 -21   9  -3   39.07    9.48
  21   9   3   57.26   12.51
 -23  -9  -3   22.95   65.80
  23  -9   3   42.34    5.71
 -23  -9  -3   43.24    8.70
  23  -9   3   40.47    6.57
 -23   9  -3   35.45    8.58
  23   9   3   49.08   12.21
 -25  -9  -3   16.88    5.91
  25  -9   3   23.91    5.20
  25   9   3   26.60    9.05
 -27  -9  -3   14.83    5.30
  27  -9   3    5.49    3.37
  27   9   3    4.06    5.78
  26 -10  -3    4.33    4.07
 -26 -10   3    8.11    6.16
  26  10  -3    2.49    5.13
  26  10  -3    4.78    6.03
 -24 -10   3   -0.65    4.55
  24 -10  -3    2.13    3.45
  24  10  -3    6.55    6.07
  24  10  -3   -0.64    3.75
  22 -10  -3    2.90    3.49
 -22 -10   3  135.37   84.48
 -22 -10   3    5.63    5.65
  22 -10  -3  -25.95   33.96
  22  10  -3   14.54    6.91
  22  10  -3   13.56    6.99
  20 -10  -3   15.55   36.97
 -20 -10   3   50.34   78.18
 -20 -10   3    7.73    5.76
 -20 -10   3   39.28   68.98
  20 -10  -3   16.18    5.12
  20  10  -3    6.06    5.30
  20  10  -3   17.42    6.88
  18 -10  -3   35.40   37.20
 -18 -10   3   21.29   65.74
 -18 -10   3    6.68    5.38
  18 -10  -3    8.72    4.49
 -18 -10   3  -47.57   53.87
  18  10  -3   20.11    6.94
  18  10  -3   11.78    6.20
 -18  10   3   28.77   43.30
 -16 -10   3   -9.39   50.67
  16 -10  -3  -59.68   35.65
 -16 -10   3  -38.56   59.31
 -16 -10   3   14.84    6.20
  16 -10  -3   23.03    5.90
  16  10  -3   11.15    5.90
 -16  10   3   36.50   40.01
  16  10  -3   27.91    7.56
  14 -10  -3   15.98   33.44
 -14 -10   3   13.25    6.30
 -14 -10   3   65.82   47.92
 -14 -10   3   12.02   31.40
  14 -10  -3    9.11    4.16
 -14  10   3    8.20   37.06
  14  10  -3    7.10    4.36
 -12 -10   3    8.89    5.13
  12 -10  -3   11.89    5.07
 -12 -10   3   37.93   35.36
  12 -10  -3  -34.33   31.90
 -12 -10   3  -10.90   48.47
 -12  10   3   33.86   37.41
  12  10  -3    6.91    4.75
 -10 -10   3   67.58   37.71
  10 -10  -3   11.55    4.84
 -10 -10   3   32.20   48.40
  10 -10  -3   42.02   29.27
 -10 -10   3   13.58    5.98
  10  10  -3   31.54    7.38
 -10  10   3   16.46   35.96
  -8 -10   3   23.52    7.22
  -8 -10   3  -10.11   20.50
   8 -10  -3   18.69    5.45
  -8 -10   3   -5.96   42.31
   8 -10  -3  -12.69   27.19
  -8  10   3   23.63   34.74
   8  10  -3   19.27    5.90
  -6 -10   3   -9.27   37.46
   6 -10  -3  -15.91   26.97
  -6 -10   3   10.62    5.80
  -6 -10   3  -28.66   26.65
   6 -10  -3   12.93    4.60
  -6 -10   3    7.34    3.08
   6  10  -3    9.07    3.82
   6  10  -3    7.45    2.87
  -4 -10   3   19.81    4.49
  -4 -10   3   42.71   38.09
  -4 -10   3   15.28    5.68
   4 -10  -3   -3.70   28.35
   4 -10  -3   11.76    4.53
   4  10  -3   21.04    4.34
  -4  10   3   34.10   30.90
   4  10  -3   31.96    6.27
   2 -10  -3   22.22    6.63
  -2 -10   3    3.05   34.06
   2 -10  -3   -2.55   28.13
  -2 -10   3   21.12    7.18
  -2 -10   3   18.75    4.08
   2  10  -3   17.30    4.36
  -2  10   3   64.26   36.36
   2  10  -3   19.61    4.80
   0 -10   3   12.80    5.22
   0 -10  -3   23.97    6.69
   0 -10  -3   36.20   32.95
   0 -10   3   14.82   22.52
   0 -10   3   20.07    4.18
   0 -10   3   20.82   32.42
   0  10  -3   15.65    4.13
   0  10   3   30.98   32.14
   0  10  -3   19.44    4.36
   0  10   3   21.23    6.57
  -2 -10  -3    9.63    4.91
   2 -10   3   -9.40   27.41
   2 -10   3   20.36    6.07
  -2 -10  -3   50.34   35.34
   2 -10   3   16.08    3.95
   2 -10   3    2.43   20.89
  -2  10  -3   18.03    4.85
   2  10   3   41.70   31.19
   2  10   3   10.60    4.82
  -4 -10  -3    4.05   31.93
  -4 -10  -3    2.82    3.52
   4 -10   3   10.21    3.02
   4 -10   3   23.95   26.95
   4 -10   3    8.15    4.55
   4 -10   3   -2.22   21.41
  -4  10  -3    7.56    3.48
   4  10   3   -7.68   38.62
   4  10   3    4.03    4.37
  -6 -10  -3    2.20    3.83
   6 -10   3    6.01    2.45
  -6 -10  -3    3.52   34.37
   6 -10   3    5.70    4.13
   6 -10   3  -25.22   23.20
   6 -10   3  -11.29   19.76
   6  10   3   -7.72   40.08
  -6  10  -3    0.50    2.35
   6  10   3    1.36    2.99
   8 -10   3    7.92    4.17
  -8 -10  -3    1.37    3.51
  -8 -10  -3   -3.54   36.30
  -8 -10  -3    5.58    1.93
   8 -10   3    5.19    2.58
   8 -10   3   -0.88   18.80
   8 -10   3   20.66   27.68
  -8  10  -3    5.59    3.35
   8  10   3    2.22    3.07
 -10 -10  -3   30.00   41.27
  10 -10   3    0.43    1.99
  10 -10   3    0.55    2.72
 -10 -10  -3    3.13    4.01
 -10 -10  -3   -0.81    0.52
 -10 -10  -3   25.97   37.17
  10 -10   3   -5.36   27.13
  10 -10   3   10.58   19.72
  10  10   3   -0.76    3.22
 -10  10  -3    1.13    2.56
 -12 -10  -3   -2.04    2.47
  12 -10   3    0.66   19.18
  12 -10   3   19.51   25.81
 -12 -10  -3   26.83   29.73
  12 -10   3    2.21    2.08
  12 -10   3    1.56    2.83
 -12 -10  -3  -17.23   42.71
 -12  10  -3    3.99    3.51
  12  10   3    1.62    3.71
  14 -10   3    6.30    3.89
 -14 -10  -3   56.53   48.44
 -14 -10  -3   -1.61    3.29
  14 -10   3    7.77    3.18
  14 -10   3   31.85   18.72
 -14 -10  -3   33.09   44.21
  14 -10   3   32.17   23.70
  14  10   3    4.01    4.68
 -14  10  -3   14.31    5.74
 -16 -10  -3  -23.71   46.66
 -16 -10  -3    3.82    4.47
 -16 -10  -3   96.17   56.97
  16 -10   3    2.00    2.69
  16 -10   3    7.37    3.22
  16  10   3    6.69    5.60
 -16  10  -3    3.12    3.70
 -18 -10  -3   49.67   58.43
 -18 -10  -3  -55.65   54.93
 -18 -10  -3    8.03    5.18
  18 -10   3    5.56    2.31
  18 -10   3    9.47    3.99
 -18  10  -3    5.66    4.40
  18  10   3    9.12    6.10
  20 -10   3    8.94    3.82
  20 -10   3   10.56    3.28
 -20 -10  -3   29.70   64.41
 -20 -10  -3    1.58    3.67
 -20  10  -3    3.49    4.35
  20  10   3    8.87    6.30
 -22 -10  -3  -33.90   94.45
  22 -10   3    5.80    3.36
  22 -10   3    3.09    2.50
 -22 -10  -3    2.94    4.22
  22  10   3    8.54    6.66
 -22  10  -3    8.33    5.15
  24 -10   3    7.93    3.31
 -24 -10  -3    6.55    5.01
  24  10   3    1.25    5.22
  26 -10   3    2.02    2.74
 -26 -10  -3   -1.42    3.31
  26  10   3    2.85    6.13
 -23 -11   3   16.34    6.52
  23 -11  -3    9.19    4.98
  23  11  -3    7.58    6.10
 -21 -11   3   31.65    9.56
  21 -11  -3   27.37    6.68
  21 -11  -3   58.20   45.57
  21  11  -3   28.99    8.54
 -19 -11   3   80.75   72.82
  19 -11  -3   41.84    8.52
 -19 -11   3   42.37   10.18
  19 -11  -3  -28.08   43.22
  19  11  -3   30.89    9.15
 -17 -11   3  199.78   87.30
  17 -11  -3   21.17   50.81
  17 -11  -3   53.22    8.94
 -17 -11   3   42.51   10.82
  17  11  -3   53.69   10.64
 -15 -11   3   94.45   15.72
  15 -11  -3   42.67   50.23
  15 -11  -3   86.53   12.08
 -15 -11   3   21.15   74.27
 -15  11   3  -19.59   52.40
  15  11  -3   73.26   12.73
  13 -11  -3  112.47   50.47
 -13 -11   3  115.15   64.83
  13 -11  -3  106.22   11.13
 -13 -11   3   99.95   16.44
 -13 -11   3  209.12   75.31
  13  11  -3   87.76   13.37
 -13  11   3  -55.61   47.16
 -11 -11   3  121.32   50.93
  11 -11  -3   53.32   45.22
 -11 -11   3  142.24   68.91
  11 -11  -3  145.51   12.87
 -11 -11   3  118.75   17.04
 -11  11   3   -9.73   47.69
  11  11  -3  122.58   12.51
   9 -11  -3  136.86   45.88
   9 -11  -3  182.52   15.28
  -9 -11   3  133.32   43.80
  -9 -11   3  181.93   17.71
  -9 -11   3  205.76   68.09
   9  11  -3  184.51   15.06
  -9  11   3   11.06   47.31
  -7 -11   3  194.27   65.62
  -7 -11   3  174.84   16.73
  -7 -11   3  212.80   53.15
   7 -11  -3  120.87   53.15
   7 -11  -3  196.54   15.65
   7  11  -3  167.51   13.69
   7  11  -3  152.68   10.85
  -7  11   3   17.17   40.82
   5 -11  -3  237.31   57.00
   5 -11  -3  174.32   15.73
  -5 -11   3  171.25   59.31
  -5 -11   3  197.46   17.44
  -5 -11   3  231.95   52.45
   5  11  -3  179.36   13.87
   5  11  -3  180.98   12.42
  -3 -11   3  274.84   52.63
  -3 -11   3  194.63   61.00
  -3 -11   3  194.21   13.88
  -3 -11   3  220.63   18.83
   3 -11  -3  153.63   51.38
   3 -11  -3  222.79   17.82
   3  11  -3  255.62   15.83
   3  11  -3  234.92   14.82
   1 -11  -3  222.20   17.70
   1 -11  -3   81.78   45.90
  -1 -11   3  244.76   47.70
  -1 -11   3  205.14   54.00
  -1 -11   3  204.00   17.92
  -1 -11   3  214.28   13.83
   1  11  -3  221.82   14.53
   1  11  -3  221.80   14.87
   1 -11   3  170.63   45.86
   1 -11   3  199.67   17.43
   1 -11   3  178.11   53.20
  -1 -11  -3  200.69   17.48
  -1 -11  -3  173.55   53.99
   1 -11   3  216.00   13.61
   1  11   3  221.29   17.32
  -1  11  -3  206.04   14.74
   3 -11   3  232.22   18.51
   3 -11   3  168.16   51.39
   3 -11   3  230.71   46.59
   3 -11   3  231.27   14.17
  -3 -11  -3  227.79   18.69
  -3 -11  -3  150.62   52.25
   3  11   3  216.89   18.02
  -3  11  -3  232.38   16.17
   5 -11   3  207.51   13.06
   5 -11   3  206.10   16.66
   5 -11   3  177.57   40.02
   5 -11   3   86.78   42.57
  -5 -11  -3  186.51   16.99
  -5 -11  -3  255.18   61.76
   5  11   3  183.82   16.81
  -5  11  -3  207.28   15.33
  -7 -11  -3  143.31   15.19
   7 -11   3  177.70   11.77
   7 -11   3  181.66   15.35
  -7 -11  -3  147.78   56.90
   7 -11   3  107.92   34.48
   7 -11   3  135.41   44.55
  -7  11  -3  170.14   14.08
   7  11   3  177.50   16.33
  -9 -11  -3  159.86   15.38
  -9 -11  -3  242.60   62.41
   9 -11   3  107.65   41.35
   9 -11   3  170.93   14.11
   9 -11   3  138.34   10.60
  -9 -11  -3  238.48   62.36
  -9  11  -3  141.31   13.24
   9  11   3  149.91   15.57
  11 -11   3  110.01    9.13
  11 -11   3  116.90   11.60
 -11 -11  -3   87.40   57.78
 -11 -11  -3  174.50   59.88
 -11 -11  -3  106.87   14.92
  11 -11   3   48.38   35.50
  11  11   3  115.36   13.62
 -11  11  -3  116.40   12.00
 -13 -11  -3   98.19   14.38
 -13 -11  -3  144.36   67.47
 -13 -11  -3   -3.84   54.85
  13 -11   3  106.51   10.75
  13 -11   3  104.41    8.85
  13 -11   3   75.41   36.06
  13  11   3   91.94   15.30
 -13  11  -3   91.78   11.23
 -15 -11  -3   59.39   66.54
  15 -11   3   52.67   28.31
 -15 -11  -3   91.53   13.74
 -15 -11  -3    7.27   57.60
  15 -11   3   88.71    9.46
 -15  11  -3   70.11   11.79
  15  11   3   73.28   12.92
  17 -11   3   33.49    7.30
 -17 -11  -3   35.19    8.55
 -17 -11  -3  -81.46   71.73
 -17 -11  -3   -0.14   50.56
  17  11   3   41.44   10.70
  19 -11   3   43.25    4.84
  19 -11   3   42.32    7.76
 -19 -11  -3   29.63    8.36
 -19 -11  -3  -27.45   75.94
 -19  11  -3   40.23    8.97
  19  11   3   28.68    9.30
  21 -11   3   36.09    5.69
 -21 -11  -3   17.49    6.92
  21 -11   3   31.99    6.62
  21  11   3    9.51    6.86
 -23 -11  -3    7.46    5.51
  23  11   3   23.06    9.03
  20 -12  -3   -2.88    2.66
 -20 -12   3    4.55    5.58
  20  12  -3    7.62    6.27
  18 -12  -3    4.86    4.34
 -18 -12   3    6.99   96.24
 -18 -12   3   10.00    7.23
 -18 -12   3  -86.99  108.63
  18  12  -3    4.54    5.29
  16 -12  -3   79.40   63.88
 -16 -12   3    6.93   83.80
 -16 -12   3  152.26  100.93
 -14 -12   3  -98.68   67.56
 -14 -12   3  -46.11   86.92
 -14 -12   3   -1.19    2.75
  14 -12  -3   32.82   56.65
  14 -12  -3   12.75    5.03
  14  12  -3   -1.54    2.83
  12 -12  -3   -2.21   54.60
  12 -12  -3   10.47    4.96
 -12 -12   3   10.58    6.79
 -12 -12   3  -43.98   62.77
 -12 -12   3  -16.04   78.23
  12  12  -3    6.24    4.88
 -10 -12   3    5.62    5.34
  10 -12  -3   15.36    6.01
  10 -12  -3    3.93   48.09
 -10 -12   3   48.73   70.93
 -10 -12   3   44.72   55.95
  10  12  -3   20.17    5.91
  -8 -12   3   -8.43   46.96
   8 -12  -3    2.87    4.14
  -8 -12   3    4.43   65.10
  -8 -12   3    6.26    5.45
   8 -12  -3   35.90   54.34
   8  12  -3   -0.06    2.75
   6 -12  -3    4.71    4.40
  -6 -12   3    2.71    5.52
  -6 -12   3  -12.99   44.98
   6 -12  -3  -21.94   45.78
  -6 -12   3    2.30   57.81
   6  12  -3    6.21    4.12
   4 -12  -3    1.17    3.87
  -4 -12   3   -5.53   40.60
  -4 -12   3    0.51   52.10
  -4 -12   3    6.17    5.15
   4 -12  -3  -18.87   45.99
   4  12  -3    5.98    3.03
   4  12  -3    2.64    3.16
  -2 -12   3    5.19    4.76
   2 -12  -3    3.67    3.99
   2 -12  -3    5.86   53.05
  -2 -12   3  -28.30   36.29
  -2 -12   3  -30.73   46.72
   2  12  -3    0.76    2.58
   2  12  -3    1.06    2.15
   0 -12   3    4.42    5.37
   0 -12  -3  -45.48   48.63
   0 -12   3  -20.73   34.91
   0 -12   3   41.52   47.00
   0 -12   3    1.49    2.44
   0 -12  -3    1.16    3.26
   0  12  -3    6.21    3.23
  -2 -12  -3   22.54   50.92
  -2 -12  -3    9.48    4.80
   2 -12   3   10.99    3.74
  -2 -12  -3   28.18   41.49
   2 -12   3    3.69   42.78
   2 -12   3    7.95    5.04
  -2  12  -3    9.57    3.86
   2  12   3    7.08    4.76
   4 -12   3    0.14    1.90
  -4 -12  -3    5.40    5.06
   4 -12   3    2.78    4.22
   4 -12   3  -46.65   41.78
  -4 -12  -3   34.47   53.75
  -4 -12  -3    9.51   43.24
  -4  12  -3    3.36    3.13
   4  12   3    3.93    4.33
  -6 -12  -3  -66.40   55.44
   6 -12   3    4.46   48.43
   6 -12   3    4.53    2.98
  -6 -12  -3   16.25    6.39
  -6 -12  -3    8.79   49.37
   6 -12   3    7.11    5.18
  -6  12  -3    4.06    3.40
   6  12   3    7.22    5.08
  -8 -12  -3  -12.64   58.61
  -8 -12  -3  -18.03   52.77
   8 -12   3   14.26    5.94
  -8 -12  -3   10.43    5.98
   8 -12   3  -34.81   43.66
  -8  12  -3   16.73    5.55
   8  12   3    5.12    4.86
  10 -12   3   23.09   42.42
  10 -12   3   19.92    6.16
 -10 -12  -3    8.75    5.86
 -10 -12  -3    9.77   63.64
 -10 -12  -3   53.98   46.53
 -10  12  -3   14.72    5.69
  10  12   3    9.84    5.81
 -12 -12  -3  -78.19   59.78
  12 -12   3    6.60    4.78
 -12 -12  -3    6.57    5.53
 -12 -12  -3   39.29   73.15
  12 -12   3    0.28   43.59
 -12  12  -3   24.24    6.92
  12  12   3   13.80    6.12
 -14 -12  -3    0.62    3.76
 -14 -12  -3   -9.92   76.09
 -14 -12  -3    9.32   73.81
  14 -12   3   21.71   39.76
  14 -12   3   -2.61    2.80
  14  12   3    6.60    5.96
 -14  12  -3    2.01    3.50
 -16 -12  -3   98.31   87.95
 -18 -12  -3    2.94    4.69
  18 -12   3    1.80    3.72
  18 -12   3    9.12    2.84
  18  12   3    7.99    5.03
 -20 -12  -3    3.76    5.33
  20  12   3    4.56    5.73
 -17 -13   3    9.35    7.40
  17 -13  -3   20.50    6.95
  17  13  -3   28.31    8.36
  15 -13  -3   39.36    9.22
 -15 -13   3   32.14   10.36
  15  13  -3   19.05    7.02
  13 -13  -3   67.27   12.17
 -13 -13   3   44.07   11.07
  13  13  -3   45.07    9.43
 -11 -13   3   53.13   13.00
  11 -13  -3   49.88   10.43
  11  13  -3   64.04   11.13
   9 -13  -3   65.91   11.69
  -9 -13   3  118.02   90.55
  -9 -13   3   72.79   14.69
   9  13  -3   77.23   11.61
  -7 -13   3  106.33   83.09
   7 -13  -3   61.75   65.86
  -7 -13   3   86.96   15.29
   7 -13  -3   77.91   13.12
   7  13  -3   67.80   10.79
  -5 -13   3  -34.15   76.31
  -5 -13   3  107.11   17.06
   5 -13  -3   82.85   13.60
   5 -13  -3   23.65   71.69
   5  13  -3  100.32    9.88
  -3 -13   3  108.61   16.88
  -3 -13   3  109.08   71.94
   3 -13  -3   63.21   65.52
   3 -13  -3   91.01   14.90
   3  13  -3   87.51    9.19
   1 -13  -3  108.15   66.38
   1 -13  -3  101.70   15.30
  -1 -13   3   82.63   14.03
  -1 -13   3   87.11   67.58
  -1 -13  -3   77.65   72.49
   1 -13   3  144.96   72.06
   1 -13   3   85.01   14.75
  -1 -13  -3   78.34   13.41
  -3 -13  -3   80.41   76.07
  -3 -13  -3   84.75   14.60
   3 -13   3  106.57   15.81
   3 -13   3   42.03   60.13
   3  13   3   97.63   14.85
  -5 -13  -3  101.94   62.45
   5 -13   3   64.66   67.94
   5 -13   3   92.72   14.58
  -5 -13  -3   83.42   14.99
  -5  13  -3   89.19   10.32
   5  13   3   89.57   14.03
  -7 -13  -3   57.79   78.75
  -7 -13  -3  -33.35   68.14
  -7 -13  -3   76.92   13.54
   7 -13   3   95.68   14.93
   7 -13   3   52.57   63.66
  -7  13  -3   98.09   13.86
   7  13   3   85.83   13.62
   9 -13   3   42.43   60.91
   9 -13   3  108.11   15.89
  -9 -13  -3   53.00   83.11
  -9 -13  -3   59.30   12.03
  -9 -13  -3   97.00   71.70
   9  13   3   74.51   14.42
  11 -13   3   52.63   62.45
 -11 -13  -3   44.78   10.17
  11 -13   3   51.98   10.17
 -11 -13  -3   -8.00   83.66
 -11 -13  -3   81.52   92.46
  11  13   3   59.84   12.45
 -13 -13  -3    0.45  102.03
  13 -13   3   50.60   10.39
  13 -13   3   37.79   59.02
 -13 -13  -3   38.83   10.24
 -13 -13  -3   60.02   93.57
  13  13   3   36.21    9.49
  15 -13   3   32.93    8.77
 -15 -13  -3  -82.26  111.59
 -15 -13  -3  117.12  125.38
 -15 -13  -3   33.93    9.61
  15  13   3   25.95    8.27
  17 -13   3   31.67    8.55
 -17 -13  -3   20.89    7.72
  17  13   3   27.03    9.23
 -12 -14   3    2.46    5.10
  12 -14  -3    6.85    5.74
  12  14  -3    6.17    5.08
 -10 -14   3    0.30    5.67
  10 -14  -3    1.98    4.26
  10  14  -3    5.32    4.04
   8 -14  -3    0.76    3.98
  -8 -14   3    4.14    5.91
   8  14  -3    6.41    4.61
   6 -14  -3    5.37    5.32
  -6 -14   3   -1.10    4.35
   6  14  -3    3.51    3.44
  -4 -14   3    0.63    4.36
   4 -14  -3   12.22    5.93
   2 -14  -3    1.37    4.04
  -2 -14   3   -1.34    4.65
   0 -14   3    5.90    5.49
   0 -14  -3    1.48    4.80
   2 -14   3    7.28    6.05
   4 -14   3    4.29    5.10
  -4 -14  -3   -0.75    3.55
  -6 -14  -3    0.12    4.09
   6 -14   3   14.79    7.13
   6  14   3    2.75    4.39
   8 -14   3    0.14    3.82
  -8 -14  -3   -3.32    2.84
   8  14   3   -2.10    3.58
 -10 -14  -3    1.89    4.94
  10 -14   3    2.70    5.26
  10  14   3   -5.31    2.39
 -12 -14  -3   -0.41    4.00
  12 -14   3    9.38    6.28
  12  14   3    2.06    4.00
  34   0  -4    6.51    3.91
  34   0  -4    3.94    4.80
  32   0  -4    4.52    3.48
 -32   0   4   -8.50   60.59
  32   0  -4    3.14    4.22
  30   0  -4   22.36    7.24
 -30   0   4  -31.83   44.30
  28   0  -4   31.20    5.86
  28   0  -4    9.61   31.11
 -28   0   4   -1.05   36.79
  28   0  -4   30.40    7.55
  26   0  -4   13.95   28.28
 -26   0   4  -23.53   32.67
  26   0  -4   42.11    8.41
  26   0  -4   44.78    6.91
  24   0  -4  124.94   11.91
 -24   0   4  133.17   37.98
  24   0  -4  124.54    9.74
  24   0  -4  175.44   35.15
  22   0  -4   77.17    7.16
 -22   0   4   90.98   29.92
  22   0  -4  104.88   26.89
  22   0  -4   94.70    9.43
 -22   0   4   87.89    6.02
 -22   0   4   86.24    6.56
  20   0  -4  120.42    8.95
  20   0  -4  125.56   10.52
 -20   0   4   94.86   29.57
  20   0  -4  132.92   29.03
 -20   0   4  127.09    9.07
 -20   0   4  124.82    8.14
  18   0  -4  504.22   47.16
 -18   0   4  444.24   23.46
 -18   0   4  621.75   55.08
  18   0  -4  493.65   26.07
  18   0  -4  509.06   24.48
 -16   0   4  644.77   54.26
  16   0  -4  604.84   49.80
  16   0  -4  599.09   28.85
 -16   0   4  613.37   28.71
 -14   0   4  499.62   22.83
  14   0  -4  454.55   22.55
  14   0  -4  395.09   39.23
  12   0  -4  788.16   54.22
 -12   0   4  718.12   33.74
 -12   0   4  762.96   56.26
  12   0  -4  736.36   33.70
 -10   0   4 2236.28  119.28
  10   0  -4 2255.03  116.73
  -8   0   4 2082.43  112.93
   8   0  -4 2190.36  111.09
  -6   0   4 1857.13   95.79
   6   0  -4 1587.43   90.18
   4   0  -4 3562.34  163.42
  -4   0   4 3359.28  164.69
   2   0  -4 2114.14  105.13
  -2   0   4 2032.15  106.52
   0   0  -4 2402.14  118.09
   0   0   4 2402.09  119.50
   2   0   4 4907.08  225.22
  -2   0  -4 5104.86  224.67
   4   0   4 2487.56  124.64
  -4   0  -4 2639.62  124.60
   6   0   4 2697.48  127.86
  -6   0  -4 2538.88  125.48
   8   0   4 1908.39   97.53
  -8   0  -4 1895.90   96.53
 -10   0  -4 1888.67   98.07
  10   0   4 1993.92  100.11
 -12   0  -4 1718.43   87.96
  12   0   4 1602.43   87.85
  14   0   4  919.06   42.88
  14   0   4  969.20   59.04
  14   0   4  899.79   40.50
 -14   0  -4  833.41   40.66
 -14   0  -4  966.53   57.15
  16   0   4  434.32   38.17
 -16   0  -4  401.44   20.75
  16   0   4  415.33   22.87
 -16   0  -4  390.78   20.47
  16   0   4  409.98   20.39
 -16   0  -4  375.71   33.50
  18   0   4  177.33   11.30
 -18   0  -4  178.88   11.44
 -18   0  -4  192.63   27.20
  18   0   4  202.65   14.16
 -18   0  -4  174.80   22.55
  20   0   4  145.28   12.42
  20   0   4  147.33   10.10
 -20   0  -4  123.10   20.46
 -20   0  -4  141.97    9.91
 -20   0  -4  130.96   23.08
 -22   0  -4  111.28   21.95
  22   0   4  129.55   12.05
 -22   0  -4   89.37   20.52
 -22   0  -4  111.05    8.85
  22   0   4  128.86    9.62
 -24   0  -4   74.49   18.34
 -24   0  -4   42.22   18.16
  24   0   4   68.88    7.20
 -24   0  -4   61.02    6.43
  24   0   4   65.76   11.09
 -26   0  -4   44.40    6.77
 -26   0  -4   44.83   17.15
  26   0   4   54.91   10.59
 -26   0  -4   16.64   18.05
 -28   0  -4   20.70   15.28
  28   0   4   22.37    7.19
 -28   0  -4   23.71    4.86
 -28   0  -4   21.84   16.38
  30   0   4    6.59    4.76
  32   0   4   18.24    6.75
  34   0   4    8.66    6.27
  33  -1  -4   11.93    4.13
  33  -1  -4    1.59    4.14
  33   1  -4    6.88    4.10
 -33   1   4   94.98   65.10
  33   1  -4    1.88    4.30
  31  -1  -4    0.00    2.51
  31  -1  -4    2.16    3.65
 -31  -1   4   -6.76   55.23
 -31   1   4   37.83   50.35
  31   1  -4   -0.86    3.27
  31   1  -4    3.98    3.30
  29  -1  -4    9.54    3.39
  29  -1  -4   -4.17   31.03
  29  -1  -4    4.84    4.24
 -29  -1   4  -23.11   45.35
 -29   1   4   31.32   39.22
  29   1  -4    5.73    3.48
  29   1  -4    8.09    4.94
  27  -1  -4   15.19    4.22
  27  -1  -4   13.19    5.30
  27  -1  -4   35.36   28.97
 -27  -1   4  -57.86   29.45
  27   1  -4   16.47    4.40
  27   1  -4   25.66    7.17
 -27   1   4  -15.16   32.98
  27   1  -4    5.52   25.77
 -25  -1   4   36.77    3.86
  25  -1  -4   42.58    8.62
  25  -1  -4  -10.44   23.25
 -25  -1   4  -10.82   31.63
  25  -1  -4   24.95    4.90
 -25   1   4   25.02   32.68
  25   1  -4   27.52    6.93
  25   1  -4   53.97   31.20
  25   1  -4   32.05    6.05
 -23  -1   4   48.77    5.43
 -23  -1   4   51.70    4.81
 -23  -1   4    2.45   28.34
  23  -1  -4   44.11    8.09
  23  -1  -4   54.20   23.39
  23  -1  -4   47.31    6.46
  23   1  -4   50.65    7.16
  23   1  -4   35.67    7.41
  23   1  -4   98.54   30.93
 -23   1   4   46.07   28.95
  21  -1  -4   14.60    4.43
 -21  -1   4   21.91   21.29
 -21  -1   4   22.78    4.06
 -21  -1   4   20.84    4.45
  21  -1  -4   16.98    3.85
  21  -1  -4   24.21   18.86
 -21   1   4   20.17    2.68
 -21   1   4   19.20    2.45
  21   1  -4    4.77   16.73
  21   1  -4   13.27    4.66
  21   1  -4   16.11    4.14
 -21   1   4   17.22   20.93
 -19  -1   4   18.42   22.55
  19  -1  -4   79.32    6.78
  19  -1  -4   35.89   18.82
 -19  -1   4   78.80    7.81
 -19  -1   4   87.07    6.66
 -19   1   4   85.41    6.37
  19   1  -4   46.90   19.40
  19   1  -4   71.85    7.83
 -19   1   4   98.99   26.84
 -19   1   4   84.01    5.86
  19   1  -4   78.91    6.98
 -17  -1   4   64.49    5.62
  17  -1  -4   61.57   19.37
  17  -1  -4   50.71    5.32
  17   1  -4   57.28    6.52
  17   1  -4   52.77    6.86
  17   1  -4   63.06   19.87
 -17   1   4   66.96    5.29
 -17   1   4   44.24   19.08
 -15  -1   4   63.34    5.59
 -15  -1   4   67.47   21.30
  15  -1  -4   62.32    5.48
  15  -1  -4   68.47   17.93
  15   1  -4   53.95    5.96
 -15   1   4   66.58    5.44
  15   1  -4   35.87   16.45
  15   1  -4   54.86    5.43
 -15   1   4   64.54   19.79
  13  -1  -4  173.94   10.58
  13  -1  -4  186.42   28.56
 -13  -1   4  187.22   30.68
 -13  -1   4  176.59   10.74
 -13   1   4  170.97   10.50
  13   1  -4  187.38   10.91
  13   1  -4  223.24   26.92
 -11  -1   4   18.86   12.48
  11  -1  -4   35.81    4.07
  11  -1  -4   44.82   15.67
 -11  -1   4   39.84    4.25
 -11   1   4   42.22   16.10
  11   1  -4   53.95    4.75
  11   1  -4   59.73   17.07
 -11   1   4   57.52    4.92
   9  -1  -4  213.29   11.58
  -9  -1   4  236.26   28.01
   9  -1  -4  205.19   24.10
  -9  -1   4  206.20   11.58
   9   1  -4  196.71   25.00
  -9   1   4  201.51   11.55
   9   1  -4  194.11   11.23
  -9   1   4  203.25   26.43
  -7  -1   4  402.96   36.44
   7  -1  -4  425.66   19.70
  -7  -1   4  403.44   19.57
   7  -1  -4  365.09   33.23
  -7   1   4  415.38   19.86
   7   1  -4  385.96   19.20
  -7   1   4  365.64   35.18
   7   1  -4  414.75   34.67
   5  -1  -4   26.63    3.83
  -5  -1   4   26.80   11.80
   5  -1  -4   24.19   11.72
  -5  -1   4   30.01    3.31
  -5   1   4   38.23    3.90
  -5   1   4   84.81   19.26
   5   1  -4   62.63   14.83
   5   1  -4   42.50    3.71
  -3  -1   4   21.91   10.54
   3  -1  -4    2.14    5.33
  -3  -1   4   17.24    3.13
   3  -1  -4   16.49    3.05
  -3   1   4   37.09    4.63
   3   1  -4   14.01    7.22
  -3   1   4   19.17   10.72
   3   1  -4   29.55    2.95
  -1  -1   4  695.21   47.90
   1  -1  -4  698.25   32.60
   1  -1  -4  716.47   48.60
   1   1  -4  778.85   47.74
  -1   1   4  794.54   51.13
  -1   1   4  716.91   32.81
  -1  -1  -4   98.21   18.20
   1  -1   4   81.17    5.21
  -1  -1  -4   91.52    5.70
  -1  -1  -4   80.21    5.90
   1  -1   4   79.16   16.16
  -1   1  -4   63.00    4.40
   1   1   4   67.29    5.39
  -1   1  -4   62.62    4.55
  -1   1  -4   52.78   12.79
   1   1   4   73.12    5.37
   1   1   4   90.76   18.69
  -3  -1  -4   33.92   12.00
  -3  -1  -4   32.25    3.79
   3  -1   4   14.77    7.97
  -3  -1  -4   38.36    3.55
   3  -1   4   37.86    3.28
   3  -1   4   32.45    2.59
   3   1   4   31.38    3.51
  -3   1  -4   39.11   11.12
  -3   1  -4   36.00    2.88
  -3   1  -4   41.65    3.16
   3   1   4   35.81    3.72
   3   1   4   43.82   12.38
  -5  -1  -4  133.96    9.74
   5  -1   4  172.62    8.85
   5  -1   4  142.87   21.12
  -5  -1  -4  127.73   21.34
  -5  -1  -4  145.64    8.82
   5  -1   4  159.01    8.44
   5   1   4  168.57   25.09
   5   1   4  168.13    9.71
  -5   1  -4  175.14    8.07
  -5   1  -4  153.65   17.64
   5   1   4  179.89   10.17
  -5   1  -4  177.14    8.68
  -7  -1  -4   85.06   17.53
   7  -1   4  102.85    6.47
  -7  -1  -4   98.71    6.21
  -7  -1  -4  103.97    7.65
   7  -1   4   97.44    6.01
   7  -1   4   94.23   16.54
  -7   1  -4   98.84    6.98
  -7   1  -4   87.21   15.89
  -7   1  -4  101.72    4.96
  -7   1  -4  100.12    5.99
   7   1   4  113.59   20.01
   7   1   4   99.49    7.54
   7   1   4  106.79    7.09
   9  -1   4   25.82    9.77
  -9  -1  -4   40.61   13.49
   9  -1   4   43.83    4.19
   9  -1   4   37.85    3.27
  -9  -1  -4   49.16    4.92
  -9  -1  -4   45.57    3.78
  -9  -1  -4   43.63    3.40
   9   1   4   12.13   10.16
   9   1   4   32.40    4.72
  -9   1  -4   32.01    3.17
  -9   1  -4   37.35   10.49
  -9   1  -4   29.64    4.43
   9   1   4   23.77    4.85
 -11  -1  -4  101.08    6.29
 -11  -1  -4  109.54    8.28
  11  -1   4  122.01    8.26
  11  -1   4  108.88   17.70
 -11  -1  -4  102.77    7.29
  11  -1   4  107.08    6.65
 -11  -1  -4  112.54    6.33
 -11  -1  -4  168.13   26.15
 -11   1  -4  123.47    8.25
 -11   1  -4  122.93    7.22
  11   1   4  123.22    9.34
 -11   1  -4  133.54   18.50
  11   1   4  121.75    8.15
  11   1   4  119.86   22.01
  13  -1   4   44.10   11.77
 -13  -1  -4   -0.49   11.83
 -13  -1  -4   37.54    3.96
 -13  -1  -4   48.20    6.49
 -13  -1  -4   34.21    2.48
  13  -1   4   35.88    5.62
  13  -1   4   34.06    3.35
 -13  -1  -4   35.01    2.50
 -13   1  -4   40.42    5.65
  13   1   4   14.45   11.99
 -13   1  -4   35.96    3.73
  13   1   4   44.16    7.27
 -13   1  -4   48.91   12.00
  13   1   4   41.59    5.55
  15  -1   4   86.64   17.15
  15  -1   4  110.31    9.00
 -15  -1  -4  120.06    7.85
  15  -1   4  115.22    7.16
 -15  -1  -4  146.69   25.03
 -15  -1  -4  119.78    8.77
 -15   1  -4  111.03    8.43
 -15   1  -4  110.00   16.60
  15   1   4  110.16    8.33
  15   1   4  105.98    9.82
  15   1   4   74.83   20.56
 -17  -1  -4   34.38    5.35
 -17  -1  -4   29.69   15.74
 -17  -1  -4   32.24    4.76
  17  -1   4   37.83    6.87
  17  -1   4   32.50    4.44
  17   1   4   35.38    6.71
 -17   1  -4   28.54   10.96
  17   1   4   33.91   18.71
 -17   1  -4   44.94   11.30
 -17   1  -4   37.01    5.71
  17   1   4   43.34    6.36
 -19  -1  -4    7.24   14.40
 -19  -1  -4    7.84   13.27
  19  -1   4    0.37    1.60
 -19  -1  -4    1.87    1.81
  19  -1   4   -0.07    2.32
 -19  -1  -4    0.71    1.86
 -19   1  -4   13.80    9.06
  19   1   4    0.51    2.61
  19   1   4    5.56    2.92
 -19   1  -4    0.53    1.61
 -19   1  -4    1.82    9.62
 -21  -1  -4   -5.89   15.78
  21  -1   4   20.33    4.07
 -21  -1  -4   17.31    3.68
  21  -1   4   17.99    5.41
 -21  -1  -4   -1.39   15.73
 -21   1  -4   18.18    4.38
  21   1   4   20.16    4.57
 -21   1  -4    5.74   10.16
 -21   1  -4   13.81    9.46
  21   1   4   26.09    6.79
 -23  -1  -4   18.38   19.46
  23  -1   4   26.32    6.46
 -23  -1  -4   19.22    3.93
 -23  -1  -4   36.66   18.87
  23  -1   4   30.17    5.10
 -23   1  -4   24.79    4.89
 -23   1  -4   21.17    8.59
  23   1   4   20.95    6.20
 -23   1  -4   24.52    8.04
  23   1   4   34.06    6.32
  25  -1   4   13.80    4.05
 -25  -1  -4   11.46    3.10
 -25  -1  -4   -0.94   21.83
  25  -1   4   10.56    4.49
 -25  -1  -4    4.98   20.91
  25   1   4   15.74    5.94
 -25   1  -4   13.99    3.86
  27  -1   4   12.62    5.19
  27  -1   4    9.85    3.64
 -27  -1  -4   12.00    3.34
 -27  -1  -4   28.87   25.25
 -27  -1  -4    9.19   27.00
  27   1   4   15.07    6.09
 -27   1  -4   10.81    3.99
  29  -1   4    9.00    4.52
 -29  -1  -4   12.77   27.90
  29   1   4   11.44    6.05
 -29   1  -4   10.64    3.86
 -31  -1  -4  -10.03   27.60
  31  -1   4    4.67    4.80
  31   1   4    0.95    3.91
  33  -1   4    5.32    5.22
  33   1   4   -1.11    3.81
  34  -2  -4   -0.81    3.30
  34  -2  -4    3.48    3.45
  34   2  -4   -1.26    3.14
  34   2  -4   -2.21    3.19
  32  -2  -4    3.40    4.40
  32  -2  -4   17.62    4.40
  32   2  -4   12.95    6.38
 -32   2   4    1.07   52.37
  32   2  -4    7.40    4.40
  30  -2  -4   25.53   34.73
  30  -2  -4   25.88    5.05
  30  -2  -4   10.92    6.08
 -30  -2   4  -29.41   50.12
  30   2  -4   30.78    6.35
  30   2  -4   25.58    7.66
 -30   2   4   15.87   42.65
  28  -2  -4   25.72    5.34
  28  -2  -4   17.13   29.23
 -28  -2   4  -45.85   42.21
  28  -2  -4   15.18    5.37
  28   2  -4   27.77    6.00
  28   2  -4   24.21    6.72
 -28   2   4    6.78   36.02
  26  -2  -4   48.24    8.63
 -26  -2   4   46.00    5.14
  26  -2  -4   -0.45   25.25
 -26  -2   4   43.19   32.81
  26  -2  -4   48.67    6.83
  26   2  -4   34.85    6.46
  26   2  -4   34.51    7.91
  26   2  -4    9.87   28.03
 -26   2   4   28.49   32.26
  24  -2  -4   95.07    9.98
 -24  -2   4   97.23    8.45
  24  -2  -4   99.23    8.00
 -24  -2   4   -6.11   28.32
 -24  -2   4   88.96    7.16
  24  -2  -4   83.36   27.25
  24   2  -4   90.54   10.32
  24   2  -4  115.24   34.00
 -24   2   4   39.61   29.75
  24   2  -4   82.60    8.25
  22  -2  -4   71.17   25.61
 -22  -2   4   76.23    6.44
 -22  -2   4   82.33    7.83
 -22  -2   4   44.49   27.81
  22  -2  -4   56.07    6.04
  22   2  -4   69.80    6.53
  22   2  -4   50.12   24.28
  22   2  -4   63.16   10.00
  22   2  -4   62.46    6.82
 -22   2   4   53.32   27.94
 -20  -2   4  138.49    9.50
  20  -2  -4  129.04   29.42
 -20  -2   4  147.64   11.36
  20  -2  -4  116.52    8.92
  20   2  -4  129.92    9.87
  20   2  -4  123.60   11.16
  20   2  -4  136.47    8.67
  20   2  -4  112.39   30.77
 -20   2   4  119.55   31.17
 -18  -2   4  370.42   19.89
 -18  -2   4  384.02   46.69
  18  -2  -4  389.53   38.02
  18  -2  -4  391.30   19.86
  18   2  -4  327.75   40.43
  18   2  -4  406.47   22.34
 -18   2   4  385.08   17.98
  18   2  -4  392.07   20.53
 -18   2   4  336.79   42.23
  16  -2  -4  398.82   20.39
 -16  -2   4  406.91   20.70
  16  -2  -4  421.60   40.64
 -16  -2   4  393.05   44.46
 -16   2   4  383.34   42.48
  16   2  -4  409.40   20.96
  16   2  -4  411.74   22.18
  16   2  -4  317.95   38.76
 -16   2   4  413.90   19.56
 -14  -2   4  478.27   23.89
  14  -2  -4  530.54   42.89
  14  -2  -4  501.74   23.84
 -14  -2   4  560.52   49.78
  14   2  -4  493.79   24.92
 -14   2   4  442.34   43.31
  14   2  -4  498.37   45.00
  14   2  -4  513.13   24.17
 -14   2   4  429.62   22.92
  12  -2  -4  767.24   54.41
 -12  -2   4  761.93   58.71
  12  -2  -4  798.24   35.64
 -12  -2   4  779.13   35.67
 -12   2   4  801.29   58.16
 -12   2   4  759.15   35.26
  12   2  -4  779.44   57.08
 -10  -2   4 1060.79   70.98
 -10  -2   4 1097.31   47.88
  10  -2  -4 1076.43   67.31
  10   2  -4 1076.21   69.64
 -10   2   4 1085.65   47.83
  -8  -2   4 1776.19   98.39
   8  -2  -4 1791.62   95.27
   8   2  -4 1680.07   95.13
  -8   2   4 1635.69   95.77
   6  -2  -4 1289.91   75.06
  -6  -2   4 1351.72   77.19
   6   2  -4 1213.10   73.77
  -6   2   4 1198.39   75.60
   4  -2  -4 2846.02  139.35
  -4  -2   4 2680.07  137.71
  -4   2   4 2870.33  141.25
   4   2  -4 2798.20  136.56
  -2  -2   4 2071.62  107.41
   2  -2  -4 2153.93  110.21
  -2   2   4 2070.81  110.49
   2   2  -4 2068.21  105.59
   0  -2  -4 2040.52  107.67
   0  -2   4 2020.31  104.06
   0   2  -4 1955.30  101.74
   0   2   4 2199.20  110.21
   2  -2   4 2374.51  121.11
  -2  -2  -4 2431.00  126.87
  -2   2  -4 2627.84  120.69
   2   2   4 2602.16  128.58
   4  -2   4 2057.26  104.60
  -4  -2  -4 2218.59  113.18
  -4   2  -4 2096.84  102.82
   4   2   4 2153.73  112.48
   6  -2   4 1657.40   82.48
  -6  -2  -4 1515.98   89.16
  -6   2  -4 1590.80   79.71
   6   2   4 1616.38   90.82
  -8  -2  -4  809.09   57.71
   8  -2   4  845.06   49.56
   8  -2   4  858.81   36.96
  -8  -2  -4  869.88   40.10
  -8  -2  -4  849.27   38.44
   8   2   4  883.09   60.01
  -8   2  -4  868.38   47.81
   8   2   4  815.78   39.90
   8   2   4  860.23   39.14
 -10  -2  -4 1119.85   48.08
  10  -2   4 1038.84   56.02
 -10  -2  -4  955.90   66.33
 -10  -2  -4 1030.11   45.44
  10   2   4 1003.96   46.75
  10   2   4 1038.68   48.32
  10   2   4 1056.59   68.75
 -10   2  -4 1004.02   53.81
 -12  -2  -4  708.61   32.14
  12  -2   4  723.46   41.47
  12  -2   4  712.10   31.09
 -12  -2  -4  728.80   34.97
  12  -2   4  736.28   33.13
 -12  -2  -4  703.48   32.08
 -12  -2  -4  637.07   52.54
  12   2   4  726.59   34.39
  12   2   4  748.86   56.73
  12   2   4  724.77   36.10
 -12   2  -4  755.21   40.05
 -14  -2  -4  774.11   32.42
  14  -2   4  684.28   40.07
 -14  -2  -4  697.13   55.11
  14  -2   4  716.79   31.69
 -14  -2  -4  753.05   35.80
 -14  -2  -4  725.38   32.01
 -14  -2  -4  737.24   32.95
  14  -2   4  726.52   34.24
 -14   2  -4  725.72   34.70
  14   2   4  731.78   37.26
  14   2   4  723.82   58.89
  14   2   4  727.78   35.19
 -14   2  -4  748.61   38.63
  16  -2   4  433.45   19.22
  16  -2   4  422.52   22.05
 -16  -2  -4  400.45   20.01
 -16  -2  -4  469.43   44.95
 -16  -2  -4  409.66   22.62
 -16  -2  -4  403.14   18.50
 -16  -2  -4  404.97   18.70
  16   2   4  384.21   24.22
 -16   2  -4  419.23   22.90
 -16   2  -4  411.44   22.77
 -16   2  -4  437.13   22.22
  16   2   4  454.44   23.00
  16   2   4  335.20   43.49
 -18  -2  -4  305.34   42.66
 -18  -2  -4  304.13   14.99
  18  -2   4  283.32   17.12
  18  -2   4  278.55   14.05
 -18   2  -4  285.06   16.81
  18   2   4  280.01   19.45
  18   2   4  256.87   16.85
 -20  -2  -4  153.87   28.72
 -20  -2  -4  151.25    9.48
  20  -2   4  159.93    9.20
  20  -2   4  138.37   11.54
 -20  -2  -4  163.62   32.13
 -20   2  -4  155.30   11.54
  20   2   4  151.14   14.00
  20   2   4  160.21   11.99
 -22  -2  -4  239.02   38.69
  22  -2   4  192.60   14.49
 -22  -2  -4  172.74   11.03
  22  -2   4  212.65   11.48
 -22  -2  -4  147.39   32.29
 -22   2  -4  204.21   13.74
  22   2   4  179.12   16.14
  24  -2   4   78.34    6.69
 -24  -2  -4   79.02   30.83
  24  -2   4   85.40    9.67
 -24  -2  -4   53.33   26.50
 -24  -2  -4   81.00    6.55
 -24   2  -4   92.69    8.86
  24   2   4   89.31   14.23
 -26  -2  -4   51.76   28.38
  26  -2   4   37.94    7.95
 -26  -2  -4   56.92    5.14
  26  -2   4   46.23    6.43
 -26  -2  -4   61.06   29.55
 -26   2  -4   42.75    7.37
  26   2   4   41.30   10.02
 -28  -2  -4   12.32   34.14
  28  -2   4   32.42    8.20
  28  -2   4   26.90    7.64
  28   2   4   22.71    7.45
 -28   2  -4   32.26    6.69
 -30  -2  -4  -39.59   38.92
  30  -2   4   14.38    5.41
 -30   2  -4   17.17    4.94
  30   2   4   11.17    6.74
  32  -2   4    4.87    4.96
 -32  -2  -4  -35.69   42.65
  32   2   4    7.28    6.63
  34  -2   4    1.48    4.55
  34   2   4    4.59    5.49
  33  -3  -4    1.59    2.99
  33  -3  -4   -0.74    3.89
 -33   3   4  -12.10   73.99
  33   3  -4    7.33    5.10
  33   3  -4    8.92    6.66
  31  -3  -4   -1.94    2.62
  31  -3  -4    4.18    3.15
  31   3  -4    5.17    4.55
 -31   3   4  -26.88   43.02
  31   3  -4    3.29    3.83
  29  -3  -4    0.39    3.36
  29  -3  -4    6.54    3.24
 -29  -3   4   10.83   50.22
  29  -3  -4   20.06   30.32
  29   3  -4    3.76    3.68
  29   3  -4    8.95    5.49
 -29   3   4  -22.61   34.82
  27  -3  -4    8.69    4.19
  27  -3  -4   35.20   27.47
 -27  -3   4    3.75    3.05
 -27  -3   4    2.82   39.90
  27  -3  -4    6.61    2.99
  27   3  -4   12.95    4.48
  27   3  -4    3.46    4.38
 -27   3   4  -11.31   31.08
  25  -3  -4   15.87    5.24
  25  -3  -4   21.26    4.65
 -25  -3   4   22.72    4.43
 -25  -3   4   22.56    5.03
  25  -3  -4   15.87   22.44
 -25  -3   4    2.43   34.06
  25   3  -4   19.04    5.34
 -25   3   4   17.02   28.21
  25   3  -4   14.73   28.35
  25   3  -4   16.69    3.10
  25   3  -4   13.90    5.44
 -23  -3   4   25.25    5.78
  23  -3  -4   19.63    4.42
  23  -3  -4  -26.75   18.78
 -23  -3   4   20.15    4.34
  23   3  -4   29.16    7.09
  23   3  -4  -29.54   22.38
 -23   3   4   11.78   24.50
  23   3  -4   26.11    5.77
  21  -3  -4   16.26    3.76
 -21  -3   4   13.40    4.63
 -21  -3   4   19.12    4.27
  21  -3  -4   14.80   18.67
 -21  -3   4   11.79   24.66
  21   3  -4   19.34    4.85
 -21   3   4   -2.72   19.92
  21   3  -4   12.94    2.89
  21   3  -4   16.84    5.44
  21   3  -4   28.06   24.76
 -19  -3   4   26.05    6.06
 -19  -3   4   12.46   21.83
 -19  -3   4   19.66    4.01
  19  -3  -4   13.01    3.50
  19  -3  -4    2.08   16.60
 -19   3   4  -16.07   17.91
  19   3  -4    9.82    3.42
  19   3  -4   -6.34   17.69
  19   3  -4   18.32    5.22
 -17  -3   4   64.93   24.70
  17  -3  -4   46.29    5.10
 -17  -3   4   51.49    6.77
  17  -3  -4   64.85   19.88
  17   3  -4   33.80   21.63
 -17   3   4   44.96    3.38
 -17   3   4   26.48   19.56
  17   3  -4   48.47    6.87
  17   3  -4   47.46    7.63
  15  -3  -4   38.91    5.53
 -15  -3   4   78.26   24.17
  15  -3  -4   27.20   16.36
 -15  -3   4   36.32    5.22
  15   3  -4   29.40    5.04
 -15   3   4   33.95    3.57
  15   3  -4   35.79    6.20
  15   3  -4   37.50   16.49
 -15   3   4   25.92   16.55
 -13  -3   4   14.33    3.43
  13  -3  -4   -7.20    9.61
  13  -3  -4   13.78    3.35
 -13  -3   4    7.15   13.54
  13   3  -4   32.80    5.36
  13   3  -4   25.34    4.58
  13   3  -4   20.23   12.89
 -13   3   4   45.15   19.18
 -11  -3   4    2.79    9.64
  11  -3  -4   -0.83    1.26
 -11  -3   4    0.46    1.48
  11  -3  -4    1.77    9.76
 -11   3   4   10.65    2.82
  11   3  -4    3.20    2.08
  11   3  -4   -1.56   10.91
 -11   3   4    9.03   12.37
  11   3  -4    8.83    2.74
   9  -3  -4  113.05   22.13
  -9  -3   4  105.66    7.53
  -9  -3   4  144.16   27.60
   9  -3  -4  118.02    7.97
   9   3  -4   77.04   20.14
   9   3  -4  104.14    7.50
   9   3  -4  104.02    7.51
  -9   3   4  104.46    7.53
   7  -3  -4  125.90    8.29
  -7  -3   4  139.93   25.47
  -7  -3   4  128.57    7.94
   7  -3  -4  130.18   23.05
   7   3  -4  108.97    7.60
  -7   3   4  105.65   22.38
   7   3  -4  102.52    7.22
   7   3  -4  122.84   23.44
  -7   3   4  106.54    7.83
  -5  -3   4    3.52    1.70
  -5  -3   4   -0.02    9.52
   5  -3  -4    3.81    2.14
   5  -3  -4    2.48    7.18
   5  -3  -4    3.86    2.10
  -5   3   4   13.53   10.69
  -5   3   4    6.35    2.39
   5   3  -4    8.01    1.96
   5   3  -4    8.10    2.16
   5   3  -4    9.43    9.83
   3  -3  -4  132.50   24.15
  -3  -3   4  135.06    8.65
   3  -3  -4  137.21    9.43
  -3  -3   4  145.39   24.41
   3  -3  -4  138.75    9.73
   3   3  -4  154.67   24.32
   3   3  -4  160.05    8.04
  -3   3   4  161.96   10.02
  -3   3   4  168.17   28.02
   3   3  -4  164.46    8.99
  -1  -3   4  146.51    8.28
   1  -3  -4  201.65   30.20
  -1  -3   4  170.86   20.62
   1  -3  -4  150.72    9.87
   1  -3  -4  158.89    9.61
  -1   3   4  138.91    9.34
   1   3  -4  129.79    7.93
  -1   3   4  160.84   27.23
   1   3  -4  117.33    6.76
   1   3  -4  138.14   21.27
   1  -3   4  271.00   27.18
   1  -3   4  319.45   14.93
  -1  -3  -4  316.34   17.23
  -1  -3  -4  320.22   16.47
  -1  -3  -4  276.42   31.43
  -1   3  -4  232.75   25.32
  -1   3  -4  292.19   14.56
   1   3   4  296.05   16.45
   1   3   4  310.67   16.60
   1   3   4  283.98   31.92
  -1   3  -4  319.87   15.69
  -3  -3  -4   43.63    5.78
  -3  -3  -4   39.11   14.87
   3  -3   4   60.55   13.75
  -3  -3  -4   39.00    6.13
   3  -3   4   39.25    3.40
  -3   3  -4   25.48    8.83
  -3   3  -4   37.59    4.08
   3   3   4   27.49   12.40
   3   3   4   44.29    4.97
  -3   3  -4   36.46    3.15
   3   3   4   33.57    5.35
   5  -3   4   23.43    2.56
   5  -3   4   22.22    9.18
  -5  -3  -4   20.37    3.94
  -5  -3  -4   -1.37    9.73
  -5  -3  -4   27.59    5.71
  -5   3  -4   10.76    8.76
   5   3   4   38.99    5.85
  -5   3  -4   35.39    3.96
   5   3   4   31.89   15.12
   5   3   4   40.88    6.17
  -5   3  -4   30.75    2.38
   7  -3   4   10.06    8.34
   7  -3   4   18.74    2.48
  -7  -3  -4   22.99   12.77
  -7  -3  -4   17.32    3.68
   7  -3   4   13.40    1.32
  -7  -3  -4   17.12    4.28
  -7   3  -4    6.24    2.24
   7   3   4    7.90   11.45
  -7   3  -4    2.43    6.14
   7   3   4    5.43    2.62
   7   3   4    9.53    3.19
   9  -3   4   57.17   13.04
   9  -3   4   64.68    4.18
  -9  -3  -4   85.48    7.66
  -9  -3  -4   68.04    5.94
  -9  -3  -4   62.19    5.80
   9  -3   4   64.20    4.41
  -9  -3  -4   72.66   19.75
  -9   3  -4   69.76   12.16
  -9   3  -4   63.99    5.97
   9   3   4  119.72   25.78
   9   3   4   61.51    6.95
   9   3   4   85.52    7.07
  11  -3   4   -2.51    6.46
  11  -3   4   11.74    2.55
  11  -3   4   18.00    2.26
 -11  -3  -4   -4.36   10.92
 -11  -3  -4   15.47    4.02
 -11  -3  -4   11.50    2.79
 -11  -3  -4   18.62    3.84
 -11   3  -4   14.92    6.14
  11   3   4   -9.25   13.00
  11   3   4   15.88    3.82
  11   3   4   15.11    4.66
 -11   3  -4   11.32    3.08
  13  -3   4    2.54    4.60
 -13  -3  -4    5.81   13.47
 -13  -3  -4    9.41    2.34
 -13  -3  -4    6.70    2.41
  13  -3   4    3.71    1.90
  13  -3   4    7.53    1.42
 -13  -3  -4    8.57    2.16
 -13  -3  -4    6.18    2.80
  13   3   4    7.41    3.47
 -13   3  -4    8.23    2.97
  13   3   4    4.27    2.80
 -13   3  -4   12.45    4.55
  13   3   4   33.89   20.22
 -15  -3  -4  110.37   29.06
 -15  -3  -4   86.84    6.71
  15  -3   4   93.41    7.23
 -15  -3  -4   82.58    6.20
  15  -3   4   89.72    5.06
 -15  -3  -4   95.84    6.24
 -15  -3  -4   93.76    8.72
  15   3   4   78.53    9.31
  15   3   4   96.44    8.71
 -15   3  -4   88.73    8.04
  15   3   4  113.24   28.82
  17  -3   4   39.34    5.94
 -17  -3  -4   42.47    4.17
 -17  -3  -4   42.29    3.78
 -17  -3  -4   76.91   24.84
  17  -3   4   35.31    2.97
 -17  -3  -4   40.64    3.84
  17   3   4   50.50   22.95
  17   3   4   41.95    9.03
 -17   3  -4   46.90    6.96
  17   3   4   39.41    6.84
 -19  -3  -4   25.55    3.59
  19  -3   4   23.94    2.55
 -19  -3  -4   -2.08   19.75
 -19  -3  -4   40.68   22.10
 -19  -3  -4   25.48    3.41
  19  -3   4   26.85    5.34
 -19  -3  -4   23.77    3.02
  19   3   4   34.57    8.16
 -19   3  -4   31.50    5.80
  21  -3   4   24.21    5.66
 -21  -3  -4    2.05   21.78
 -21  -3  -4   33.69    3.49
 -21  -3  -4   12.11   23.48
  21  -3   4   29.94    3.14
  21   3   4   26.56    7.13
 -21   3  -4   32.12    6.33
  23  -3   4   28.91    3.95
  23  -3   4   33.72    6.87
 -23  -3  -4   53.03   27.41
 -23  -3  -4   27.97    3.81
 -23  -3  -4   -2.58   23.93
  23   3   4   13.32    6.05
 -23   3  -4   25.55    5.73
 -25  -3  -4   18.32   31.23
  25  -3   4   16.49    3.29
  25  -3   4   26.50    6.63
 -25  -3  -4   -5.16   26.72
 -25   3  -4   14.91    4.86
  25   3   4    6.97    5.07
  27  -3   4    8.03    2.88
 -27  -3  -4   -3.02   34.36
  27  -3   4   14.22    5.13
  27   3   4   11.80    5.80
 -27   3  -4   10.10    4.20
  29  -3   4    2.76    3.80
 -29  -3  -4    6.12   42.85
 -29   3  -4    2.63    3.34
  29   3   4   -0.47    4.24
 -31  -3  -4   35.30   53.71
  31  -3   4    7.07    4.97
  31   3   4   18.28    7.74
  33  -3   4    7.67    4.18
  33   3   4   -4.89    3.18
  32  -4  -4   19.21    6.52
  32  -4  -4    7.53    3.70
  32   4  -4    6.24    4.98
  32   4  -4    7.71    5.91
  30  -4  -4   11.20    5.71
 -30  -4   4  -66.45   58.23
  30  -4  -4   14.77    4.24
  30  -4  -4    1.97   30.90
 -30   4   4   23.97   39.26
  30   4  -4    9.53    5.76
  30   4  -4   17.73    5.88
 -28  -4   4   20.25    5.35
  28  -4  -4   30.47    7.63
 -28  -4   4 -131.08   54.89
  28  -4  -4   -7.35   28.70
 -28   4   4   11.97   33.46
  28   4  -4   29.40    6.69
  28   4  -4   28.19    7.63
  26  -4  -4   33.09   26.22
  26  -4  -4   37.80    5.89
 -26  -4   4   27.87    6.11
  26   4  -4   36.02    8.82
  26   4  -4   33.15    6.96
  26   4  -4   30.40    2.80
 -26   4   4   42.18   30.59
  24  -4  -4   87.67   27.20
  24  -4  -4   60.15    6.30
 -24  -4   4    3.19   35.11
 -24  -4   4   64.73    6.89
 -24  -4   4   62.89    9.70
  24   4  -4   51.30    8.90
 -24   4   4   13.03   28.31
  24   4  -4   60.16    4.41
  24   4  -4   59.33   10.70
 -22  -4   4   94.69   12.11
  22  -4  -4   72.26    6.85
 -22  -4   4   67.23    6.84
  22  -4  -4  107.22   27.31
 -22  -4   4   13.65   29.95
  22   4  -4   71.37    5.05
  22   4  -4   71.35    7.99
 -22   4   4   52.90   25.04
  22   4  -4   79.22   11.55
  22   4  -4   76.68   32.06
  20  -4  -4   98.88    8.43
 -20  -4   4  124.34   11.57
  20  -4  -4  138.74   29.95
 -20  -4   4  147.63   39.76
 -20  -4   4  115.53    9.08
  20   4  -4  123.68   10.09
 -20   4   4  111.24   28.47
  20   4  -4  110.79   11.19
  20   4  -4  114.36    7.04
  20   4  -4  121.92   34.85
 -18  -4   4  207.49   42.94
 -18  -4   4  222.36   16.71
  18  -4  -4  242.78   35.25
 -18  -4   4  233.36   14.22
  18  -4  -4  217.03   13.59
 -18   4   4  287.90   41.34
  18   4  -4  249.96   16.75
  18   4  -4  222.18   14.87
  18   4  -4  207.97   40.17
  16  -4  -4  265.66   34.20
 -16  -4   4  249.02   14.99
  16  -4  -4  266.52   14.94
 -16  -4   4  172.94   38.83
  16   4  -4  256.75   42.99
  16   4  -4  251.05   16.61
 -16   4   4  294.81   41.41
  16   4  -4  246.55   15.36
 -14  -4   4  317.05   17.73
  14  -4  -4  320.40   17.66
 -14  -4   4  387.01   45.07
  14  -4  -4  352.91   36.03
  14   4  -4  290.07   18.63
 -14   4   4  316.56   38.37
 -14   4   4  325.88   16.17
  14   4  -4  338.46   18.41
  14   4  -4  427.35   43.06
  12  -4  -4  641.84   29.90
  12  -4  -4  626.46   50.96
 -12  -4   4  589.84   55.47
 -12  -4   4  553.79   29.23
 -12   4   4  614.64   28.74
 -12   4   4  622.20   51.61
  12   4  -4  669.47   30.40
  12   4  -4  576.96   30.28
  12   4  -4  708.33   56.86
 -10  -4   4  581.10   27.17
  10  -4  -4  548.23   27.28
 -10  -4   4  559.09   49.41
  10  -4  -4  608.61   49.01
  10   4  -4  532.25   27.33
  10   4  -4  481.55   46.89
  10   4  -4  618.24   27.71
 -10   4   4  531.76   26.59
 -10   4   4  548.34   48.29
   8  -4  -4  499.92   24.95
   8  -4  -4  477.73   43.59
   8  -4  -4  520.65   25.77
  -8  -4   4  478.23   24.20
  -8  -4   4  513.19   45.81
   8   4  -4  536.23   24.81
   8   4  -4  489.43   24.39
   8   4  -4  450.75   43.15
  -8   4   4  502.40   24.68
   6  -4  -4 1153.21   74.02
   6  -4  -4 1188.47   51.70
  -6  -4   4 1087.79   73.01
  -6   4   4 1072.49   73.25
   6   4  -4 1162.54   72.66
  -6   4   4 1111.32   50.71
  -4  -4   4 1247.08   78.01
   4  -4  -4 1308.18   57.54
   4  -4  -4 1222.88   79.70
  -4   4   4 1257.27   56.86
  -4   4   4 1255.99   80.30
   4   4  -4 1382.28   78.96
  -2  -4   4 1202.38   76.27
   2  -4  -4 1313.61   58.57
   2  -4  -4 1309.51   82.63
  -2   4   4 1413.68   84.05
  -2   4   4 1337.07   58.14
   2   4  -4 1225.61   75.38
   0  -4  -4  893.87   65.69
   0  -4  -4 1072.08   46.60
   0  -4  -4 1000.44   45.25
   0  -4   4  987.15   62.14
   0   4   4 1014.19   45.55
   0   4  -4  926.89   60.25
   0   4  -4  965.13   41.61
  -2  -4  -4 1199.21   54.72
  -2  -4  -4 1274.86   56.30
   2  -4   4 1246.17   71.23
  -2  -4  -4 1281.81   80.58
   2   4   4 1179.78   79.44
  -2   4  -4 1132.80   68.41
   2   4   4 1229.49   55.19
  -4  -4  -4 1503.82   65.45
   4  -4   4 1405.82   77.74
  -4  -4  -4 1369.97   88.42
   4   4   4 1331.31   88.72
  -4   4  -4 1498.08   77.55
   4   4   4 1432.53   64.06
  -6  -4  -4  994.01   44.28
   6  -4   4  958.07   56.14
  -6  -4  -4  906.04   45.55
  -6  -4  -4 1047.17   71.36
   6   4   4  988.97   70.88
   6   4   4  945.44   45.37
   6   4   4  956.63   44.80
  -6   4  -4  909.91   53.95
   8  -4   4  912.89   53.63
  -8  -4  -4  906.43   45.25
  -8  -4  -4  801.26   65.61
  -8  -4  -4  972.16   43.77
  -8  -4  -4  951.09   43.64
   8  -4   4  939.53   39.28
   8  -4   4  966.42   39.13
  -8   4  -4  957.23   52.09
   8   4   4  945.70   44.65
   8   4   4  996.21   72.32
   8   4   4  959.40   45.61
 -10  -4  -4  646.29   30.63
 -10  -4  -4  598.87   30.06
 -10  -4  -4  581.44   53.73
  10  -4   4  629.23   27.01
  10  -4   4  633.82   27.17
 -10  -4  -4  610.89   32.28
  10  -4   4  611.98   37.56
  10   4   4  639.20   57.20
 -10   4  -4  601.00   36.02
 -10   4  -4  637.01   30.62
  10   4   4  606.32   31.58
  10   4   4  623.85   32.85
 -12  -4  -4  429.18   22.18
  12  -4   4  441.43   20.40
  12  -4   4  438.27   19.28
 -12  -4  -4  449.71   46.88
  12  -4   4  402.13   25.08
 -12  -4  -4  464.15   23.05
 -12  -4  -4  434.23   24.65
 -12   4  -4  438.60   23.15
  12   4   4  432.13   24.21
  12   4   4  360.98   46.83
  12   4   4  462.60   26.02
 -14  -4  -4  305.01   17.36
 -14  -4  -4  338.17   18.41
 -14  -4  -4  384.16   44.71
 -14  -4  -4  331.93   20.37
  14  -4   4  357.89   17.02
  14  -4   4  335.31   14.85
 -14  -4  -4  336.29   16.00
 -14   4  -4  315.71   18.89
  14   4   4  347.09   20.40
  14   4   4  352.31   45.29
  14   4   4  283.70   20.82
  16  -4   4  489.03   21.15
 -16  -4  -4  514.96   22.34
 -16  -4  -4  489.54   24.74
 -16  -4  -4  417.89   50.61
 -16  -4  -4  469.29   23.68
  16  -4   4  492.46   24.09
 -16   4  -4  494.74   26.29
  16   4   4  572.22   59.71
  16   4   4  461.76   28.88
 -18  -4  -4  142.64    8.36
 -18  -4  -4  164.92    9.80
  18  -4   4  168.29   10.96
 -18  -4  -4  152.68   37.28
  18  -4   4  168.16    7.74
 -18  -4  -4  159.61   10.47
  18   4   4  156.26   14.58
 -18   4  -4  142.94   11.83
 -20  -4  -4   65.69   29.43
 -20  -4  -4  128.89   32.76
 -20  -4  -4  116.36    7.17
 -20  -4  -4  110.73    6.36
 -20  -4  -4  107.33    7.68
  20  -4   4  106.87    5.77
  20  -4   4  105.49    8.93
  20   4   4  124.22   16.94
 -20   4  -4   88.92    9.41
 -22  -4  -4  147.82    8.44
 -22  -4  -4   74.82   32.98
 -22  -4  -4  137.93    7.53
  22  -4   4  152.86   11.53
 -22  -4  -4  169.03   38.84
  22  -4   4  134.89    7.41
 -22   4  -4  158.62   12.53
  22   4   4  116.41   13.94
  24  -4   4   60.66    4.49
  24  -4   4   69.85    7.76
 -24  -4  -4   71.35   36.01
 -24  -4  -4  -18.81   32.17
 -24   4  -4   62.67    9.89
  24   4   4   61.83   12.54
 -26  -4  -4   26.30   38.63
  26  -4   4   35.21    7.16
  26  -4   4   20.82    3.27
  26   4   4   45.03   10.87
 -26   4  -4   19.34    5.77
  28  -4   4   22.25    6.46
 -28  -4  -4  -44.43   45.53
 -28   4  -4   20.05    5.89
  28   4   4   28.74    9.40
  30  -4   4   19.67    6.35
 -30  -4  -4    7.80   56.96
 -30   4  -4    9.66    4.85
  30   4   4   14.01    6.84
  32  -4   4    3.79    4.42
  32   4   4   20.43    8.05
 -31  -5   4    1.65    2.08
  31  -5  -4   12.49    4.02
  31  -5  -4    4.41    4.61
  31   5  -4   11.03    5.57
  31   5  -4    6.05    5.76
  29  -5  -4    3.78    2.98
  29  -5  -4   30.43   28.41
  29  -5  -4   10.13    5.54
 -29  -5   4   11.51    4.36
  29   5  -4   10.65    5.01
  29   5  -4    4.50    4.84
 -29   5   4   14.20   34.67
 -27  -5   4   -0.51    3.22
 -27  -5   4  -26.96   52.55
  27  -5  -4    5.09    3.07
  27  -5  -4   17.01   26.66
  27   5  -4    3.87    4.04
 -27   5   4    7.81   32.75
  27   5  -4    8.83    5.61
 -25  -5   4   14.30   43.46
 -25  -5   4   84.93   58.90
  25  -5  -4   15.76   25.17
  25  -5  -4   23.47    4.85
 -25  -5   4   26.88    6.92
 -25   5   4   26.84   29.22
  25   5  -4   17.70    5.46
  25   5  -4   22.16    7.05
  23  -5  -4   17.90   23.70
 -23  -5   4   33.57    7.47
 -23  -5   4   -6.07   37.43
  23  -5  -4   43.89    6.56
 -23   5   4   53.05   28.77
  23   5  -4   37.41    8.78
  23   5  -4   27.91    6.24
  21  -5  -4   23.74    4.83
 -21  -5   4   24.97    6.59
  21  -5  -4   38.92   22.26
 -21  -5   4  -82.17   28.13
  21   5  -4   19.17    6.42
  21   5  -4   15.12   27.74
  21   5  -4   18.82    5.40
 -21   5   4   28.98   24.00
  21   5  -4   21.02    2.16
  19  -5  -4   37.11    6.01
  19  -5  -4   18.41   20.12
 -19  -5   4   45.00    9.19
 -19  -5   4   88.37   34.32
  19   5  -4   32.80   27.28
  19   5  -4   32.65    6.55
  19   5  -4   32.04    7.45
 -19   5   4   38.99   22.49
  17  -5  -4   56.04   22.30
  17  -5  -4   64.73    6.47
 -17  -5   4   65.95   10.53
 -17  -5   4   49.11   26.34
  17   5  -4   65.88   24.74
  17   5  -4   67.38    8.00
 -17   5   4   55.31   21.17
  17   5  -4   54.25    8.06
  15  -5  -4   17.28   16.37
 -15  -5   4   37.68   25.42
  15  -5  -4   28.06    5.17
  15   5  -4   37.69    6.49
  15   5  -4   51.81   21.31
  15   5  -4   39.63    7.39
 -15   5   4    0.83   17.55
 -13  -5   4    9.70   18.83
  13  -5  -4   19.05   14.24
 -13  -5   4   16.75    3.91
  13  -5  -4   22.37    4.78
  13   5  -4   38.29   20.52
  13   5  -4   23.67    4.99
  13   5  -4   15.85    4.40
 -13   5   4   19.39    3.40
 -13   5   4   22.93   17.72
 -11  -5   4   67.77   24.83
  11  -5  -4   89.07   23.64
 -11  -5   4   69.87    6.44
  11  -5  -4   66.43    6.79
  11   5  -4   82.17   23.82
 -11   5   4   77.76    6.25
  11   5  -4   68.81    7.15
  11   5  -4   72.28    5.27
 -11   5   4   96.09   24.50
  11   5  -4   77.07    7.25
   9  -5  -4   63.73   19.80
  -9  -5   4   77.52    6.42
  -9  -5   4   82.90   23.16
   9  -5  -4   69.20    6.63
   9  -5  -4   72.56    7.19
   9   5  -4   68.21    6.61
   9   5  -4   64.17    5.08
  -9   5   4   65.63    6.09
   9   5  -4   73.61   21.99
   9   5  -4   69.53    6.46
  -9   5   4   18.81   16.92
   7  -5  -4   20.12    4.73
   7  -5  -4   40.20   16.88
   7  -5  -4   24.11    4.66
  -7  -5   4   32.36    4.91
  -7  -5   4   33.14   15.78
   7   5  -4   27.12    4.68
  -7   5   4   23.65    4.56
   7   5  -4   25.74    3.72
   7   5  -4   25.51    4.65
   7   5  -4   33.64   16.14
  -7   5   4   30.94   16.91
   5  -5  -4   21.85    4.94
   5  -5  -4    3.02   13.22
  -5  -5   4   31.81   15.72
   5   5  -4   37.58    3.85
  -5   5   4   34.00   16.33
  -5   5   4   45.82    5.04
   5   5  -4   37.49    4.22
   5   5  -4   28.96   14.73
   5   5  -4   43.18    5.83
   3  -5  -4   14.90    3.94
  -3  -5   4   17.96    3.58
  -3  -5   4   10.81   11.35
   3  -5  -4    9.92    3.10
   3  -5  -4   -1.73    9.35
  -3   5   4   34.24   15.97
   3   5  -4   23.63    3.65
   3   5  -4   20.54    3.41
   3   5  -4   31.82   14.84
  -3   5   4   21.19    4.40
   3   5  -4   29.20    4.75
   1  -5  -4   20.26    4.72
   1  -5  -4   39.89   17.29
  -1  -5   4   19.92   12.99
   1  -5  -4   22.33    4.88
  -1  -5   4   33.92    4.50
  -1   5   4   12.65   15.02
  -1   5   4   22.84    5.23
   1   5  -4   -6.47    8.64
   1   5  -4   14.71    3.33
  -1   5   4   20.30    4.41
   1   5  -4   24.75    3.36
   1   5  -4   17.58    3.49
  -1  -5  -4    6.75    2.65
  -1  -5  -4   -4.55    9.11
  -1  -5  -4   14.42    4.00
   1  -5   4   11.93   10.10
   1  -5   4    6.85    2.02
   1   5   4   11.19    3.35
  -1   5  -4   11.75    1.64
  -1   5  -4    7.66    2.41
  -1   5  -4    8.30    2.50
   1   5   4   12.94    3.71
   1   5   4    6.38   13.26
  -1   5  -4    4.05    8.29
  -3  -5  -4   25.58    5.71
  -3  -5  -4   17.97   17.00
   3  -5   4   23.17    3.53
   3  -5   4   26.58   10.78
  -3  -5  -4   22.15    4.69
   3   5   4   27.27    5.69
  -3   5  -4   28.89    4.88
   3   5   4   41.20   18.58
  -3   5  -4   22.34    3.54
   3   5   4   26.86    5.44
  -3   5  -4   36.09   12.30
  -5  -5  -4    4.42   16.20
   5  -5   4   30.93    3.06
   5  -5   4   35.92   11.92
  -5  -5  -4   32.12    5.79
  -5  -5  -4   33.28    6.57
   5   5   4   14.18    4.17
  -5   5  -4   35.31   11.61
   5   5   4   23.11    5.55
   5   5   4   19.98   17.65
  -5   5  -4   20.55    4.04
   7  -5   4    0.83    1.11
  -7  -5  -4   -2.32   15.02
  -7  -5  -4    1.64    2.28
   7  -5   4    1.76    7.95
  -7  -5  -4    0.33    2.02
  -7  -5  -4    1.18    2.35
  -7   5  -4    5.59    2.56
  -7   5  -4    5.71    8.22
   7   5   4   -4.21   16.02
   7   5   4    0.29    2.19
   7   5   4    4.61    2.84
  -9  -5  -4   18.16    4.41
  -9  -5  -4   30.74    5.69
  -9  -5  -4   37.07    7.27
   9  -5   4   25.51    3.29
   9  -5   4   22.70    1.97
   9  -5   4   39.19   12.59
   9  -5   4   21.88    2.01
  -9  -5  -4   21.31   18.87
  -9   5  -4   33.42    5.68
   9   5   4   45.13    7.47
  -9   5  -4   55.75   12.19
   9   5   4   39.16    7.32
   9   5   4   41.38   22.44
  11  -5   4   21.55    2.35
 -11  -5  -4   26.36    5.39
  11  -5   4   20.07   11.38
 -11  -5  -4   29.79   17.82
 -11  -5  -4   22.20    5.57
 -11  -5  -4   29.97    5.40
  11  -5   4   21.68    9.34
  11  -5   4   19.78    2.27
  11   5   4   12.47   15.28
 -11   5  -4   12.02    3.71
  11   5   4   11.66    4.67
  11   5   4   17.70    4.87
  13  -5   4    1.99    1.38
 -13  -5  -4   -0.16    1.78
 -13  -5  -4   -0.93   17.56
 -13  -5  -4    0.48    2.23
  13  -5   4    0.03    0.82
  13   5   4    2.20    2.99
  13   5   4   -0.47   19.48
 -13   5  -4    1.76    2.28
 -15  -5  -4   16.53    2.52
 -15  -5  -4   22.01   21.48
  15  -5   4   19.62    1.98
  15  -5   4   18.67    3.56
 -15  -5  -4   17.38    4.07
 -15  -5  -4   16.99    4.50
 -15   5  -4   18.20    4.80
  15   5   4   17.04    6.07
  15   5   4    7.44   24.75
 -17  -5  -4   20.53    2.17
 -17  -5  -4   35.76   25.64
 -17  -5  -4   20.02    4.71
  17  -5   4   25.83    2.13
  17  -5   4   30.54    4.91
 -17  -5  -4   29.44    4.92
  17   5   4   44.81    9.82
 -17   5  -4   33.36    6.62
 -19  -5  -4    4.94    1.08
 -19  -5  -4    2.10    2.09
 -19  -5  -4    4.07    2.77
 -19  -5  -4   24.62   26.33
  19  -5   4    5.15    2.52
  19  -5   4    6.45    1.18
  19   5   4   -0.40    3.04
 -19   5  -4    9.14    3.86
 -21  -5  -4    3.84   25.36
  21  -5   4   11.45    3.65
 -21  -5  -4    6.93    2.79
 -21  -5  -4    1.98   27.85
  21  -5   4   12.43    1.65
 -21  -5  -4    4.10    2.32
 -21   5  -4    7.32    4.14
  21   5   4    6.59    4.88
 -23  -5  -4    2.55   32.57
  23  -5   4    4.29    2.81
 -23  -5  -4   10.34    2.71
 -23  -5  -4   -5.84   33.51
  23   5   4   10.76    6.51
 -23   5  -4    5.79    3.88
 -25  -5  -4  -31.79   34.24
 -25  -5  -4   -0.01    0.65
  25  -5   4    5.67    3.54
 -25  -5  -4   -0.17    0.58
 -25   5  -4   12.55    4.86
  25   5   4   21.48    7.44
 -27  -5  -4   27.82   48.14
  27  -5   4   12.55    4.26
  27   5   4    0.59    4.11
 -27   5  -4    2.54    3.76
 -29  -5  -4   -0.92   59.69
  29  -5   4    2.70    3.36
  29   5   4    4.82    5.79
 -29   5  -4   10.72    5.03
  31  -5   4    2.07    4.01
  31   5   4    2.46    5.32
  32  -6  -4    7.33    5.68
 -32  -6   4    0.71    2.35
  32   6  -4   -0.26    4.54
  30  -6  -4    6.84    3.55
 -30  -6   4    2.78    3.38
  30  -6  -4   18.47    6.03
  30   6  -4    7.68    5.97
  30   6  -4    4.53    4.79
  28  -6  -4   15.56    4.04
 -28  -6   4   25.91    7.02
 -28  -6   4   46.40   70.69
  28  -6  -4    5.49   26.81
  28   6  -4    5.81    5.14
 -28   6   4  -10.52   32.56
  28   6  -4    9.62    5.47
  26  -6  -4   34.13    5.78
  26  -6  -4   23.35   28.12
 -26  -6   4   25.58    6.67
 -26  -6   4  114.72   64.26
 -26   6   4   45.49   33.55
  26   6  -4   28.74    7.57
  26   6  -4   29.62    8.28
 -24  -6   4   45.45    9.01
 -24  -6   4   27.93   55.24
 -24  -6   4  -13.44   45.31
  24  -6  -4   54.37    7.69
  24  -6  -4   35.28   27.58
 -24   6   4   14.37   29.70
  24   6  -4   47.88    8.88
  24   6  -4   36.63    9.27
 -22  -6   4   16.89   39.19
  22  -6  -4   89.70   28.70
  22  -6  -4   73.93    7.45
 -22  -6   4   55.28   10.69
 -22  -6   4  142.65   60.90
 -22   6   4   69.74   30.46
  22   6  -4   95.74   10.16
  22   6  -4   76.58   12.94
 -20  -6   4   49.64   30.34
  20  -6  -4  100.67    8.57
  20  -6  -4  102.32   29.30
 -20  -6   4   88.41   13.12
  20   6  -4   98.98   10.46
 -20   6   4   51.77   26.63
  20   6  -4   94.15   10.74
  18  -6  -4  145.33   32.35
 -18  -6   4   86.78   37.72
  18  -6  -4  148.66   10.71
 -18  -6   4  129.82   13.48
  18   6  -4  141.61    7.10
 -18   6   4  168.33   35.18
  18   6  -4  134.37   12.83
  18   6  -4  129.85   11.89
 -16  -6   4  283.98   50.65
  16  -6  -4  202.52   13.36
  16  -6  -4  188.77   35.98
 -16  -6   4  187.64   16.05
 -16   6   4  183.59   35.77
  16   6  -4  168.30   14.57
  16   6  -4  210.46   14.86
  16   6  -4  202.60   10.02
  16   6  -4  176.17   40.20
  14  -6  -4  295.82   16.44
 -14  -6   4  243.83   44.90
  14  -6  -4  253.43   39.03
  14   6  -4  232.98   42.66
  14   6  -4  254.17   16.78
 -14   6   4  259.46   39.99
  14   6  -4  243.25   12.58
  14   6  -4  239.58   17.04
  12  -6  -4  448.51   24.42
 -12  -6   4  471.29   52.99
  12  -6  -4  493.43   49.00
 -12   6   4  519.41   48.87
 -12   6   4  463.02   22.33
  12   6  -4  460.32   25.17
  12   6  -4  443.26   25.43
  12   6  -4  457.47   21.38
  12   6  -4  438.93   50.42
 -10  -6   4  729.93   61.45
  10  -6  -4  681.04   57.78
  10  -6  -4  717.27   34.14
 -10   6   4  621.35   56.71
  10   6  -4  660.26   34.16
  10   6  -4  717.89   34.42
  10   6  -4  682.06   30.85
  10   6  -4  698.18   61.23
 -10   6   4  660.12   32.24
  -8  -6   4  490.68   25.33
  -8  -6   4  555.36   52.12
   8  -6  -4  497.42   49.40
   8  -6  -4  534.67   26.88
   8  -6  -4  511.70   27.30
   8   6  -4  486.99   26.21
  -8   6   4  497.21   25.65
   8   6  -4  389.17   46.32
   8   6  -4  525.20   24.10
   8   6  -4  558.20   27.02
  -6  -6   4  936.42   39.30
   6  -6  -4  856.83   42.52
   6  -6  -4  858.24   41.96
  -6  -6   4  841.25   40.27
  -6  -6   4  863.13   66.80
   6  -6  -4  826.59   67.11
   6   6  -4  877.03   41.07
  -6   6   4  855.70   68.54
   6   6  -4  936.13   41.86
  -6   6   4  873.44   41.49
   6   6  -4  926.49   67.53
   4  -6  -4 1041.71   48.47
  -4  -6   4 1022.99   46.29
  -4  -6   4 1161.20   75.00
   4  -6  -4  985.15   48.70
   4  -6  -4 1031.01   75.94
   4   6  -4 1123.96   73.96
  -4   6   4  993.17   74.84
   4   6  -4 1005.92   46.33
   4   6  -4 1055.85   47.46
  -4   6   4  984.98   47.76
   2  -6  -4 1000.45   72.99
   2  -6  -4  941.34   44.01
  -2  -6   4  940.63   65.56
  -2  -6   4  898.76   41.30
   2  -6  -4  873.72   44.24
   2   6  -4  958.18   42.55
  -2   6   4  936.21   43.79
   2   6  -4  932.48   65.07
   2   6  -4  867.45   40.64
  -2   6   4  846.15   70.13
   0  -6   4  859.26   38.77
   0  -6  -4  764.71   66.06
   0  -6   4  911.38   36.62
   0  -6   4  888.39   61.94
   0  -6  -4  745.05   40.82
   0  -6  -4  878.71   42.66
   0   6   4  891.57   41.99
   0   6  -4  876.29   37.36
   0   6  -4  834.52   59.74
   0   6  -4  858.61   39.57
   0   6   4  834.73   69.19
   0   6   4  853.82   41.52
  -2  -6  -4  926.45   75.00
  -2  -6  -4  998.07   48.51
   2  -6   4  987.04   44.03
  -2  -6  -4 1015.55   47.49
   2  -6   4 1008.86   65.38
  -2   6  -4 1066.19   66.10
   2   6   4 1052.14   48.01
   2   6   4  968.18   47.27
   2   6   4  828.92   72.92
  -4  -6  -4  891.17   72.53
  -4  -6  -4  928.44   44.34
   4  -6   4  876.15   40.43
   4  -6   4  953.58   60.85
  -4  -6  -4  884.82   45.27
   4   6   4  977.71   45.28
   4   6   4  897.10   44.42
   4   6   4  973.01   76.56
  -4   6  -4  884.61   59.46
   6  -6   4  675.33   51.66
  -6  -6  -4  796.58   41.80
  -6  -6  -4  821.68   40.15
   6  -6   4  850.37   36.70
  -6  -6  -4  895.06   41.23
  -6  -6  -4  746.93   65.92
   6   6   4  786.90   71.42
  -6   6  -4  852.23   39.23
   6   6   4  822.80   41.56
   6   6   4  859.88   41.36
   8  -6   4  955.03   40.64
  -8  -6  -4 1031.23   47.31
   8  -6   4 1008.34   66.03
   8  -6   4 1024.71   59.88
  -8  -6  -4  947.67   48.23
   8  -6   4  985.06   42.40
  -8  -6  -4  818.61   72.63
  -8  -6  -4  958.57   45.99
   8   6   4  905.74   47.15
   8   6   4  940.76   80.87
  -8   6  -4 1002.38   45.67
   8   6   4  989.10   48.47
 -10  -6  -4  788.57   38.16
 -10  -6  -4  772.56   37.05
 -10  -6  -4  719.73   68.13
  10  -6   4  716.67   32.23
  10  -6   4  783.14   47.87
  10  -6   4  750.44   33.10
  10  -6   4  741.84   50.61
  10  -6   4  782.69   31.96
 -10   6  -4  753.42   36.85
  10   6   4  645.79   66.82
  10   6   4  690.96   39.14
  12  -6   4  390.36   27.67
  12  -6   4  358.65   16.75
  12  -6   4  360.30   16.98
  12  -6   4  385.31   28.22
 -12  -6  -4  346.45   20.15
  12  -6   4  351.01   16.96
 -12  -6  -4  367.53   55.39
 -12  -6  -4  391.26   22.00
  12   6   4  332.19   23.21
 -12   6  -4  356.75   21.04
  12   6   4  337.35   57.55
 -14  -6  -4  306.95   50.15
 -14  -6  -4  331.94   19.69
  14  -6   4  308.98   15.41
  14  -6   4  306.80   14.66
 -14  -6  -4  299.36   17.96
  14  -6   4  311.60   15.38
 -14   6  -4  330.68   19.72
  14   6   4  294.16   21.76
  14   6   4  227.53   53.15
 -16  -6  -4  329.16   14.62
  16  -6   4  335.45   15.23
 -16  -6  -4  323.14   18.66
  16  -6   4  313.41   16.69
 -16  -6  -4  338.06   20.28
 -16  -6  -4  327.44   54.33
 -16   6  -4  336.67   20.67
  16   6   4  321.82   23.29
  16   6   4  372.02   64.12
 -18  -6  -4  112.69    8.83
 -18  -6  -4   54.91   33.99
  18  -6   4  122.11    6.04
 -18  -6  -4  123.54   36.03
 -18  -6  -4  107.40    9.86
  18  -6   4  103.94    7.97
  18   6   4  107.48   12.87
 -18   6  -4   88.33    9.83
 -20  -6  -4   81.89    8.41
  20  -6   4   91.80    7.61
 -20  -6  -4   -8.00   26.85
 -20  -6  -4   92.75    7.74
 -20  -6  -4   73.52   37.99
  20  -6   4   92.48    4.82
  20   6   4   83.12   13.90
 -20   6  -4   73.38   11.04
  22  -6   4   71.69    7.12
 -22  -6  -4   32.28   44.68
 -22  -6  -4   67.56    6.32
 -22  -6  -4   57.19    8.00
  22   6   4   50.36   11.96
 -22   6  -4   67.73   10.78
 -24  -6  -4   45.21    6.40
 -24  -6  -4    0.04   45.28
  24  -6   4   46.67    7.24
  24   6   4   44.95   10.83
 -24   6  -4   43.78    8.96
 -26  -6  -4  -37.69   44.02
  26  -6   4   19.35    5.30
 -26  -6  -4   -0.42    0.83
  26   6   4   14.00    6.34
 -26   6  -4   22.89    6.19
  28  -6   4   19.50    5.67
 -28   6  -4   29.37    7.81
  28   6   4   32.27    8.98
  30  -6   4   10.78    5.16
  30   6   4   24.63    8.63
 -29  -7   4    4.34    4.54
  29  -7  -4    3.90    3.15
  29   7  -4    0.47    4.03
  29   7  -4    2.73    4.79
 -27  -7   4 -117.95   79.67
 -27  -7   4   -0.22    3.82
  27  -7  -4   17.65   26.82
  27  -7  -4   -1.15    2.25
  27   7  -4    1.13    3.87
 -27   7   4   33.43   35.03
  27   7  -4    2.43    3.88
  25  -7  -4  -13.72   28.60
  25  -7  -4   11.28    4.22
 -25  -7   4   35.32   63.58
 -25  -7   4   12.30    6.06
  25   7  -4    6.15    5.20
 -25   7   4  -21.50   32.76
  25   7  -4    1.57    4.58
 -23  -7   4   52.03   48.85
 -23  -7   4    7.24    5.40
  23  -7  -4   69.19   31.85
  23  -7  -4   17.75    4.25
 -23  -7   4  -24.08   59.63
 -23   7   4   27.91   31.02
  23   7  -4   15.91    5.87
  23   7  -4   11.62    6.02
  21  -7  -4  -13.76   26.56
 -21  -7   4   -8.78   52.18
  21  -7  -4   15.13    4.21
 -21  -7   4    6.02   42.26
 -21  -7   4   10.38    5.42
  21   7  -4    7.25    4.61
 -21   7   4    7.57   28.99
  21   7  -4    9.63    5.09
 -19  -7   4   15.81    6.00
  19  -7  -4   19.00    4.63
  19  -7  -4   26.37   23.87
 -19  -7   4   14.01   36.53
 -19  -7   4   24.13   49.70
  19   7  -4   12.94    4.73
  19   7  -4    7.89    4.06
 -19   7   4   -1.24   25.67
 -17  -7   4  -16.13   42.35
 -17  -7   4   22.58    6.52
  17  -7  -4   17.90    4.77
  17  -7  -4   21.12   22.69
 -17  -7   4   23.30   30.30
  17   7  -4   19.95    5.99
  17   7  -4   14.34    5.26
 -17   7   4   15.69   24.48
  17   7  -4   14.56    1.56
  15  -7  -4   -1.68    1.57
  15  -7  -4    1.71   20.73
 -15  -7   4    1.85    3.91
 -15  -7   4   15.88   25.12
  15   7  -4    6.83    3.93
  15   7  -4    2.71    3.17
  15   7  -4    4.74    1.41
 -15   7   4   -8.04   23.24
 -13  -7   4   -0.32    3.05
  13  -7  -4    0.38    2.30
  13  -7  -4   -7.58   16.48
 -13  -7   4  -12.35   23.73
  13   7  -4    3.43    3.02
 -13   7   4   20.28   21.54
  13   7  -4    1.84    2.76
  13   7  -4    4.62    1.69
  11  -7  -4   29.14    5.76
  11  -7  -4   -2.95   19.08
 -11  -7   4   26.83   24.16
  11   7  -4   24.66    5.81
  11   7  -4   32.75    6.74
  11   7  -4    3.15   21.73
  11   7  -4   30.38    3.33
 -11   7   4   12.78   19.91
  -9  -7   4   37.12    4.19
   9  -7  -4   10.12   20.90
  -9  -7   4   35.64   22.51
   9  -7  -4   28.64    5.87
  -9   7   4   30.06   19.34
   9   7  -4   25.25    5.81
   9   7  -4   30.43    4.32
  -9   7   4   31.90    5.17
   9   7  -4   21.43    5.24
   9   7  -4   32.93   19.83
  -7  -7   4    1.77    1.58
   7  -7  -4   -4.47   15.86
  -7  -7   4  -25.72   16.62
   7  -7  -4    5.80    3.37
   7   7  -4   11.65   19.63
   7   7  -4    4.50    2.00
  -7   7   4    5.56    2.83
   7   7  -4    5.55    3.02
   7   7  -4    5.82    2.98
   5  -7  -4   19.12   19.33
   5  -7  -4    3.87    2.88
  -5  -7   4    4.00   16.15
   5   7  -4   11.17    3.48
   5   7  -4   12.30    2.90
   5   7  -4   11.35   15.79
  -5   7   4   21.77   18.55
   5   7  -4   14.17    4.16
  -5   7   4   12.58    3.85
  -3  -7   4   22.11   16.87
   3  -7  -4   -0.74   18.94
   3  -7  -4   24.15    5.72
  -3  -7   4   24.70    3.48
   3  -7  -4   29.96    6.33
  -3  -7   4   27.32    4.65
  -3   7   4   21.80    5.22
   3   7  -4   17.97    4.39
   3   7  -4    0.14   14.53
  -3   7   4   18.66   19.93
   3   7  -4   19.84    4.02
   3   7  -4   24.64    4.65
   1  -7  -4   12.58    4.41
  -1  -7   4   15.65   15.97
  -1  -7   4   13.48    3.06
   1  -7  -4   13.94    4.57
  -1  -7   4   12.55    2.39
   1  -7  -4    9.46   20.20
   1   7  -4   15.96   15.82
   1   7  -4   21.83    3.71
  -1   7   4   18.10    4.98
  -1   7   4   24.83    5.38
   1   7  -4   13.79    3.72
  -1   7   4   49.67   21.39
   1   7  -4   20.32    4.33
  -1  -7  -4    7.66    3.75
  -1  -7  -4    9.09   19.94
   1  -7   4    8.96    2.47
   1  -7   4    5.70    1.39
   1  -7   4   -1.63   12.52
  -1  -7  -4    5.76    3.31
  -1   7  -4    1.85    1.29
   1   7   4   -0.57    1.91
  -1   7  -4    0.34    1.58
   1   7   4   -9.63   18.74
   1   7   4    1.66    2.49
  -3  -7  -4    4.14    2.91
  -3  -7  -4    5.01    2.12
   3  -7   4    4.08   11.88
   3  -7   4    0.48    1.43
   3  -7   4    0.33   16.76
  -3  -7  -4  -13.98   18.98
   3  -7   4    6.32    1.40
  -3   7  -4    2.81    2.16
   3   7   4   -3.36   20.47
   3   7   4    3.47    3.01
   3   7   4    2.45    2.56
  -5  -7  -4   38.56    7.20
   5  -7   4   40.79    2.90
   5  -7   4   22.98   14.65
  -5  -7  -4   16.09   22.27
   5  -7   4   54.22   22.55
   5  -7   4   41.96    4.29
   5   7   4   33.95    7.37
   5   7   4  110.41   34.00
  -5   7  -4   40.24    6.29
   7  -7   4   10.91    2.71
  -7  -7  -4    1.69   20.76
   7  -7   4    9.27    1.64
   7  -7   4   -6.27   16.43
   7  -7   4   18.59   13.49
  -7  -7  -4   13.56    4.94
  -7   7  -4    7.12    3.09
   7   7   4    7.41    3.78
   7   7   4   -2.48   23.64
  -9  -7  -4   18.27   26.35
   9  -7   4   32.61   14.09
   9  -7   4   27.70    4.01
   9  -7   4   23.11    2.44
   9  -7   4   33.10   18.57
  -9  -7  -4   26.65    6.10
  -9   7  -4   19.55    4.88
   9   7   4   17.63    5.86
   9   7   4   52.71   29.96
 -11  -7  -4   10.48   26.16
 -11  -7  -4   40.27    8.00
  11  -7   4   38.79    3.45
  11  -7   4   40.73   14.13
 -11  -7  -4   35.70    3.38
  11  -7   4   38.67    3.78
  11  -7   4   25.23   15.15
  11  -7   4   35.34    2.94
  11   7   4   35.79    7.96
 -11   7  -4   57.06    8.95
  11   7   4   -4.03   29.11
  13  -7   4   49.15   12.63
 -13  -7  -4   29.36    6.80
  13  -7   4   30.82    3.21
 -13  -7  -4   21.19   24.33
  13  -7   4   27.36    3.08
  13  -7   4   25.81    2.78
 -13  -7  -4   24.88    2.49
  13  -7   4   27.94   11.12
 -13   7  -4   24.39    5.74
  13   7   4   -3.68   32.11
  13   7   4   30.48    7.69
  15  -7   4   28.35    3.86
  15  -7   4   25.95    3.43
 -15  -7  -4   34.86   31.30
  15  -7   4   27.00    3.95
 -15  -7  -4   15.00    5.17
 -15  -7  -4   23.11    1.94
 -15  -7  -4   25.02    1.94
 -15   7  -4   17.96    5.33
  15   7   4   15.84    5.89
  15   7   4   41.63   37.96
 -17  -7  -4   14.42   33.01
  17  -7   4   15.32    2.50
  17  -7   4   13.99    2.95
  17  -7   4   11.15    2.85
 -17  -7  -4    6.59    4.22
 -17  -7  -4  -40.65   26.55
  17   7   4   12.02    5.87
 -17   7  -4   17.85    5.18
  19  -7   4    8.99    2.77
 -19  -7  -4   32.52   32.70
  19  -7   4   10.70    3.19
 -19  -7  -4    2.15   36.24
  19  -7   4   15.23    2.29
 -19  -7  -4    1.15    2.95
 -19   7  -4   12.95    5.15
  19   7   4    6.18    4.89
 -21  -7  -4  -31.61   35.66
 -21  -7  -4   14.15    4.59
  21  -7   4   13.07    3.15
 -21  -7  -4  -18.64   41.95
  21   7   4   14.55    6.22
 -21   7  -4   14.51    5.46
 -23  -7  -4    6.23    3.64
  23  -7   4   15.96    4.14
 -23  -7  -4    3.16   41.62
  23   7   4    9.24    6.17
 -23   7  -4   16.39    5.60
 -25  -7  -4    7.08    3.47
  25  -7   4   14.45    4.07
 -25   7  -4    6.68    4.47
  25   7   4    1.43    4.61
  27  -7   4    6.90    4.03
  27   7   4   20.35    8.27
 -27   7  -4    4.69    4.34
  29  -7   4   -0.15    3.11
  29   7   4    2.65    5.64
 -29   7  -4    0.86    3.84
  28  -8  -4    7.27    3.56
 -28  -8   4    5.32    5.18
  28   8  -4    3.84    4.83
  28   8  -4    4.72    6.29
  26  -8  -4   16.04    4.71
  26  -8  -4  -14.83   29.86
 -26  -8   4   24.58    8.19
  26   8  -4   26.18    8.76
 -26   8   4  -23.17   37.16
  26   8  -4   37.03    9.28
  24  -8  -4   33.38   33.52
 -24  -8   4   -3.72   65.97
 -24  -8   4   37.66    9.61
  24  -8  -4   41.18    7.03
  24   8  -4   35.69    9.78
 -24   8   4  -16.99   38.10
  24   8  -4   30.37    8.44
  22  -8  -4   39.51   32.38
  22  -8  -4   45.44    7.22
 -22  -8   4  210.95   77.92
 -22  -8   4  -47.54   52.38
 -22  -8   4   22.67    7.27
 -22   8   4    3.48   35.32
  22   8  -4   41.04    9.77
  22   8  -4   33.32    8.49
  20  -8  -4   57.33    8.18
 -20  -8   4  -26.26   33.37
 -20  -8   4   95.77   63.14
 -20  -8   4   50.65   10.34
  20  -8  -4   92.63   33.62
  20   8  -4   61.50   11.64
  20   8  -4   47.84    9.04
 -20   8   4   96.97   38.32
  18  -8  -4  111.48   33.68
 -18  -8   4  159.83   65.14
  18  -8  -4   94.07    9.12
 -18  -8   4   47.53   42.92
 -18  -8   4   81.19   12.97
 -18   8   4   51.73   32.45
  18   8  -4   90.92   13.90
  18   8  -4   62.61   10.57
  16  -8  -4  104.14    9.83
  16  -8  -4   94.12   33.64
 -16  -8   4  134.07   40.11
 -16  -8   4   46.85   50.56
 -16  -8   4   85.35   14.03
  16   8  -4   99.68    5.27
 -16   8   4   77.34   33.23
  16   8  -4  100.92   11.24
  16   8  -4  101.12   11.07
 -14  -8   4  155.83   14.75
  14  -8  -4  116.18   10.68
  14  -8  -4  116.23   34.27
 -14  -8   4   95.95   38.45
 -14  -8   4   56.43   45.46
  14   8  -4  114.96   11.56
 -14   8   4  119.41   35.17
  14   8  -4  125.36    7.24
  14   8  -4  129.54   12.27
 -12  -8   4  219.81   47.60
  12  -8  -4  170.43   37.53
 -12  -8   4  181.33   16.61
  12  -8  -4  193.07   14.17
 -12  -8   4  137.85   48.68
  12   8  -4  203.48   15.54
 -12   8   4  216.35   42.37
  12   8  -4  193.32   10.67
  10  -8  -4  237.05   43.49
 -10  -8   4  242.54   55.05
 -10  -8   4  241.53   14.30
  10  -8  -4  222.17   15.97
 -10  -8   4  250.13   45.47
  10   8  -4  257.10   17.41
  10   8  -4  235.31   12.95
  10   8  -4  236.95   16.62
 -10   8   4  224.16   42.39
   8  -8  -4  289.58   18.48
   8  -8  -4  275.14   47.79
  -8  -8   4  247.21   46.52
  -8  -8   4  289.85   15.73
  -8  -8   4  307.45   61.27
   8   8  -4  272.42   17.85
  -8   8   4  187.52   40.58
  -8   8   4  270.27   16.59
   8   8  -4  281.94   15.20
   8   8  -4  303.15   18.91
  -6  -8   4  272.83   56.01
   6  -8  -4  231.40   44.25
  -6  -8   4  208.05   42.37
   6  -8  -4  269.59   18.07
  -6  -8   4  279.59   14.91
  -6   8   4  278.81   48.45
   6   8  -4  264.38   16.76
  -6   8   4  273.66   16.91
   6   8  -4  272.87   17.82
   6   8  -4  275.14   15.13
  -4  -8   4  398.35   19.71
   4  -8  -4  275.81   49.88
  -4  -8   4  353.88   51.64
  -4  -8   4  391.68   63.01
   4  -8  -4  391.46   23.62
  -4   8   4  379.33   22.53
   4   8  -4  406.49   23.03
  -4   8   4  390.17   57.02
   4   8  -4  420.31   21.69
   4   8  -4  414.96   20.93
  -2  -8   4  500.94   52.14
   2  -8  -4  509.78   28.33
   2  -8  -4  457.68   56.42
  -2  -8   4  502.64   63.54
  -2  -8   4  504.53   23.46
   2   8  -4  470.91   25.01
  -2   8   4  479.72   27.25
  -2   8   4  512.25   60.40
   2   8  -4  519.31   24.80
   0  -8   4  428.32   55.83
   0  -8   4  410.21   45.13
   0  -8  -4  420.48   54.43
   0  -8   4  394.80   19.80
   0  -8  -4  409.39   24.85
   0   8   4  421.76   24.59
   0   8   4  442.38   64.06
   0   8  -4  455.18   20.89
   0   8   4  435.59   25.42
   0   8  -4  416.77   22.42
   2  -8   4  390.90   41.82
  -2  -8  -4  439.34   55.54
   2  -8   4  391.46   18.17
  -2  -8  -4  398.67   23.95
   2  -8   4  450.82   53.42
   2  -8   4  385.64   21.11
   2   8   4  351.58   23.23
  -2   8  -4  377.53   21.21
   2   8   4  348.92   58.63
   4  -8   4  361.67   16.76
  -4  -8  -4  352.27   22.41
   4  -8   4  346.73   18.68
   4  -8   4  408.43   49.74
   4  -8   4  421.65   42.01
  -4  -8  -4  358.82   55.89
   4   8   4  335.35   22.47
   4   8   4  285.54   54.91
  -4   8  -4  367.10   20.63
  -6  -8  -4  353.37   21.69
  -6  -8  -4  402.20   51.58
  -6  -8  -4  301.42   16.61
   6  -8   4  295.66   16.80
   6  -8   4  318.63   15.12
   6  -8   4  384.37   52.08
   6   8   4  293.29   57.71
   6   8   4  310.03   21.42
  -6   8  -4  350.28   19.84
  -8  -8  -4  303.01   15.58
  -8  -8  -4  324.35   57.33
   8  -8   4  289.78   14.30
   8  -8   4  299.36   42.71
  -8  -8  -4  288.56   20.04
   8  -8   4  313.20   16.12
  -8   8  -4  310.09   19.00
   8   8   4  294.60   59.01
   8   8   4  275.92   20.54
  10  -8   4  256.85   13.94
 -10  -8  -4  272.91   18.84
 -10  -8  -4  315.01   57.30
 -10  -8  -4  248.29   13.06
  10  -8   4  259.93   12.85
  10  -8   4  245.98   36.18
  10  -8   4  284.26   31.53
 -10   8  -4  251.63   17.09
  10   8   4  197.21   50.33
  10   8   4  212.67   18.29
 -12  -8  -4  183.45    9.95
  12  -8   4  199.45   10.70
  12  -8   4  250.66   31.19
  12  -8   4  196.13    9.87
  12  -8   4  235.15   27.79
 -12  -8  -4  196.72   15.72
  12  -8   4  194.12   11.14
 -12  -8  -4  182.90   47.04
 -12   8  -4  176.89   14.28
  12   8   4  174.32   50.28
  12   8   4  169.41   16.30
  14  -8   4  156.28    9.28
 -14  -8  -4   75.45   42.32
 -14  -8  -4  157.95   13.65
  14  -8   4  155.84    8.66
  14  -8   4  155.74    9.36
  14  -8   4  161.88   18.78
  14  -8   4  150.82   19.27
  14   8   4  135.04   14.76
 -14   8  -4  150.07   12.99
 -16  -8  -4  130.48   49.23
  16  -8   4  122.48    7.63
  16  -8   4  123.98    8.22
  16  -8   4  115.98    7.60
 -16  -8  -4  122.02   11.94
 -16   8  -4  112.58   11.53
  16   8   4  113.70   16.85
  18  -8   4  108.49    7.91
  18  -8   4  101.72    7.41
 -18  -8  -4  114.33   11.12
 -18  -8  -4  -38.19   36.54
 -18  -8  -4  102.06   50.69
  18  -8   4  106.52    6.71
  18   8   4  111.21   17.13
 -18   8  -4   95.94   11.11
  20  -8   4   59.63    5.84
  20  -8   4   76.34    6.55
 -20  -8  -4   65.86   10.15
 -20  -8  -4   26.24   49.53
 -20  -8  -4   45.23   41.63
  20  -8   4   63.27    4.70
  20   8   4   69.74   13.98
 -20   8  -4   61.96   11.06
  22  -8   4   56.99    5.94
  22  -8   4   43.26    4.56
 -22  -8  -4  -32.06   47.60
 -22  -8  -4   43.06    7.72
 -22   8  -4   45.64    9.11
  22   8   4   33.97    9.24
 -24  -8  -4   33.04    7.15
 -24  -8  -4 -121.40   64.47
 -24   8  -4   36.97    8.87
  24   8   4   36.51   10.11
 -26  -8  -4   18.80    4.95
  26  -8   4   12.95    4.15
 -26   8  -4   17.88    6.69
  26   8   4   10.14    7.04
  28  -8   4   11.45    4.41
 -28  -8  -4    1.49    1.94
  28   8   4    5.64    6.85
 -28   8  -4    7.84    5.14
  27  -9  -4    3.09    3.22
 -27  -9   4   -2.09    4.18
  27   9  -4   -2.39    4.01
  27   9  -4    4.43    6.01
  25  -9  -4    1.26    3.22
 -25  -9   4    1.33    4.68
  25   9  -4    4.70    5.24
  25   9  -4    2.87    4.80
 -25   9   4  -39.03   45.42
 -23  -9   4    5.94    5.75
  23  -9  -4    8.32    4.28
 -23  -9   4   25.06   73.12
  23  -9  -4   22.01   40.43
  23   9  -4    3.29    4.83
  23   9  -4    5.17    4.93
 -23   9   4   48.96   44.99
 -21  -9   4   14.24    6.77
 -21  -9   4  110.22   63.05
 -21  -9   4  -62.37   74.13
  21  -9  -4    5.41   33.96
  21  -9  -4   14.39    4.94
 -21   9   4   20.02   41.18
  21   9  -4   16.53    6.74
  21   9  -4   16.06    5.83
 -19  -9   4   13.12    7.15
 -19  -9   4  -11.49   50.21
  19  -9  -4   15.02    4.66
 -19  -9   4   -2.65   65.27
  19  -9  -4   15.97   35.27
  19   9  -4   11.97    5.27
 -19   9   4  -31.82   38.09
 -17  -9   4   21.53    7.33
 -17  -9   4    5.11   35.30
 -17  -9   4   26.23   58.05
  17  -9  -4   33.28    6.74
  17  -9  -4  -40.78   30.73
 -17   9   4   39.95   36.38
  17   9  -4   23.15    6.65
  17   9  -4   17.93    6.40
 -15  -9   4   20.31    7.73
  15  -9  -4   11.21    4.63
 -15  -9   4  -47.21   39.08
 -15  -9   4   11.35   53.32
  15  -9  -4   37.71   34.32
  15   9  -4   18.70    5.87
 -15   9   4   -6.07   36.72
  15   9  -4   19.28    6.37
  15   9  -4   18.17    1.98
 -13  -9   4   18.99    6.82
  13  -9  -4    0.77   26.68
  13  -9  -4   19.08    5.68
 -13  -9   4   56.61   37.75
 -13  -9   4   54.06   49.26
  13   9  -4   23.64    3.40
  13   9  -4   15.63    5.46
 -13   9   4   37.54   29.48
  13   9  -4   22.52    6.83
  11  -9  -4   31.94   27.69
  11  -9  -4   42.27    7.77
 -11  -9   4  -11.79   32.19
 -11  -9   4   27.90   44.50
 -11   9   4   31.73   29.91
  11   9  -4   29.93    4.37
  11   9  -4   27.65    7.27
  11   9  -4   33.43    7.65
   9  -9  -4   -6.48   29.55
  -9  -9   4  -10.16   40.95
  -9  -9   4   33.52    8.06
  -9  -9   4  -10.06   27.35
  -9  -9   4   23.44    4.64
   9  -9  -4   21.80    5.83
  -9   9   4   15.45   33.15
   9   9  -4   26.60    4.53
   9   9  -4   29.23    6.84
   9   9  -4   26.49    6.56
  -7  -9   4   18.33    3.56
  -7  -9   4   59.70   42.22
   7  -9  -4   21.27    5.93
  -7  -9   4   19.81    6.52
   7  -9  -4   23.55   29.17
  -7  -9   4   -3.48   24.33
   7   9  -4   13.71    4.99
   7   9  -4   15.48    3.58
   7   9  -4   12.96    4.29
  -5  -9   4    4.18   25.19
  -5  -9   4   42.39   35.97
   5  -9  -4   11.86   25.65
   5  -9  -4   14.50    5.17
  -5  -9   4   15.50    3.32
   5   9  -4   16.28    3.62
  -5   9   4   24.54   26.94
   5   9  -4   15.57    4.26
   3  -9  -4   30.03    6.72
   3  -9  -4   32.25   25.27
  -3  -9   4   48.16   25.16
  -3  -9   4   33.66    4.94
  -3  -9   4   11.07   31.47
   3   9  -4   41.13    6.42
  -3   9   4   44.52    7.91
  -3   9   4  -23.08   26.62
   3   9  -4   47.73    6.88
  -1  -9   4   11.39   26.95
   1  -9  -4   23.14    6.39
   1  -9  -4   48.59   28.76
  -1  -9   4   17.23   20.83
  -1  -9   4   28.88    4.17
   1   9  -4   25.19    4.86
  -1   9   4   -5.03   26.85
   1   9  -4   25.33    4.45
  -1  -9  -4   22.18    6.27
   1  -9   4    0.79   26.46
  -1  -9  -4   24.51   29.17
   1  -9   4   29.53    4.06
   1   9   4   17.66    5.77
   1   9   4   71.54   35.20
  -1   9  -4   22.48    4.96
  -3  -9  -4   38.39   30.80
  -3  -9  -4   14.54    5.37
   3  -9   4   27.15    3.75
   3  -9   4   25.85   26.67
  -3   9  -4   15.88    4.25
   3   9   4    8.92   33.93
   3   9   4   23.43    6.73
  -5  -9  -4    6.94    4.23
   5  -9   4    4.59   26.04
   5  -9   4    3.98    1.64
  -5  -9  -4    7.77   29.46
   5   9   4    9.94    4.50
   5   9   4    7.90   30.53
  -5   9  -4    8.96    3.82
   7  -9   4    2.34    1.47
   7  -9   4   -1.73   24.02
  -7  -9  -4   -9.05   30.28
  -7  -9  -4    5.62    4.01
   7   9   4   14.62   37.82
  -7   9  -4    7.59    3.50
   7   9   4   14.05    5.82
   9  -9   4   16.00   23.29
  -9  -9  -4    9.75    5.10
  -9  -9  -4    6.26    2.01
   9  -9   4    9.73    2.28
   9  -9   4   10.93   17.41
  -9  -9  -4  -25.67   31.40
   9   9   4   -0.81    3.04
   9   9   4    7.20   39.41
  -9   9  -4   -0.45    2.54
 -11  -9  -4    4.65    3.89
 -11  -9  -4  -15.15   34.18
 -11  -9  -4    0.69    1.11
  11  -9   4    0.96    1.68
  11  -9   4   -5.93   17.20
  11  -9   4   -0.04    1.34
  11  -9   4   20.09   23.43
  11   9   4    6.16    4.34
  11   9   4   12.38   41.22
 -11   9  -4   -0.88    2.27
 -13  -9  -4  -80.07   38.35
 -13  -9  -4   11.81    5.21
  13  -9   4    6.19    2.36
  13  -9   4    2.61   18.78
  13  -9   4    6.38    2.07
 -13  -9  -4   -0.14    0.34
  13  -9   4   15.85   16.01
 -13   9  -4   11.70    4.39
  13   9   4   12.35    5.50
  15  -9   4   12.37    2.41
  15  -9   4   12.00    3.03
 -15  -9  -4    0.17   37.55
 -15  -9  -4    7.40    4.60
  15  -9   4   12.76    3.09
 -15  -9  -4  -17.64   42.05
 -15   9  -4   12.32    4.82
  15   9   4    3.59    4.55
  17  -9   4    8.27    2.66
  17  -9   4    8.38    2.57
 -17  -9  -4  -58.19   41.15
 -17  -9  -4  -21.39   47.30
  17  -9   4    8.79    2.51
 -17  -9  -4    4.93    4.61
  17   9   4    3.45    4.95
 -17   9  -4   13.16    5.16
 -19  -9  -4    3.61    4.18
  19  -9   4   11.96    4.03
 -19  -9  -4  -39.21   53.13
  19  -9   4    5.77    2.42
  19  -9   4    2.69    2.47
  19  -9   4    6.62    3.35
 -19  -9  -4  -59.81   47.78
  19   9   4   10.34    6.08
 -19   9  -4    6.51    4.50
 -21  -9  -4   26.85   57.20
  21  -9   4   19.67    4.31
 -21  -9  -4   11.60    5.19
  21  -9   4    9.44    3.01
  21   9   4   -0.06    4.51
 -21   9  -4   14.31    5.58
 -23  -9  -4  172.68   95.84
  25  -9   4    1.19    2.43
 -25  -9  -4    2.73    3.57
 -25   9  -4    7.86    5.24
  25   9   4    5.18    5.75
 -27  -9  -4   -0.21    2.66
 -27   9  -4    2.59    4.85
  27   9   4   -0.65    4.76
 -24 -10   4   26.38    8.61
  24 -10  -4   16.06    5.69
  24  10  -4   20.01    7.68
  24  10  -4   18.80    7.10
  22 -10  -4   69.22   47.75
 -22 -10   4  -11.09   86.16
 -22 -10   4   38.15   10.65
  22 -10  -4   28.04    6.76
  22  10  -4   41.06   10.26
  22  10  -4   15.65    6.64
 -22  10   4   17.98   55.59
 -20 -10   4   26.76    8.91
  20 -10  -4   -4.03   44.10
  20 -10  -4   47.19    8.24
 -20 -10   4  144.60   94.08
 -20 -10   4   34.64   69.66
  20  10  -4   39.72    9.89
  20  10  -4   34.37    8.96
 -20  10   4  -13.68   50.18
  18 -10  -4   32.47   43.03
 -18 -10   4   76.13   76.02
 -18 -10   4   80.24   13.68
  18 -10  -4   91.61    9.50
 -18 -10   4  -26.37   60.24
  18  10  -4   62.83   11.16
  18  10  -4   70.44   12.32
 -18  10   4  -42.23   47.05
  16 -10  -4   80.81   43.55
 -16 -10   4  106.17   58.94
 -16 -10   4  124.56   61.60
  16 -10  -4   95.84    9.87
 -16 -10   4   87.87   15.02
 -16  10   4  -52.11   42.04
  16  10  -4   98.34   14.64
  16  10  -4   78.90   13.22
 -14 -10   4  150.14   51.10
  14 -10  -4   95.97    9.94
 -14 -10   4  132.28   71.55
 -14 -10   4  101.01   15.26
  14 -10  -4   -9.05   41.95
 -14  10   4  -25.42   41.65
  14  10  -4   87.15   13.07
 -12 -10   4  148.84   16.19
  12 -10  -4  167.32   14.22
 -12 -10   4  205.72   71.50
 -12 -10   4  172.11   48.70
  12 -10  -4  135.20   51.20
  12  10  -4  175.89   14.91
  12  10  -4  161.77    9.82
  12  10  -4  177.02   15.80
 -10 -10   4  152.61   64.07
  10 -10  -4  166.54   44.55
  10 -10  -4  207.06   16.09
 -10 -10   4  185.70   17.77
  10  10  -4  197.65   11.67
  10  10  -4  182.87   15.24
   8 -10  -4  239.44   17.45
  -8 -10   4  266.46   66.69
  -8 -10   4  226.92   18.99
   8 -10  -4  152.28   44.04
   8  10  -4  204.57   12.82
   8  10  -4  194.98   15.35
   6 -10  -4  254.59   19.20
  -6 -10   4  276.32   15.72
  -6 -10   4  338.78   71.58
  -6 -10   4  258.51   21.11
   6 -10  -4  207.04   49.02
   6  10  -4  260.60   17.30
   6  10  -4  287.12   16.15
   4 -10  -4  309.23   21.86
  -4 -10   4  325.61   63.14
  -4 -10   4  326.90   23.57
  -4 -10   4  330.36   17.50
   4 -10  -4  326.05   61.73
  -4 -10   4  378.32   69.20
   4  10  -4  319.87   18.86
   4  10  -4  310.02   18.35
  -2 -10   4  354.98   18.46
  -2 -10   4  323.92   24.08
   2 -10  -4  323.81   61.87
   2 -10  -4  337.99   23.22
  -2 -10   4  385.60   57.09
  -2 -10   4  210.61   54.04
   2  10  -4  382.33   19.85
   2  10  -4  382.50   20.69
  -2  10   4  233.57   57.59
   0 -10  -4  253.86   55.38
   0 -10   4  354.70   18.48
   0 -10   4  390.38   58.70
   0 -10   4  414.89   65.18
   0 -10  -4  354.02   23.97
   0  10  -4  388.30   21.55
   0  10   4  364.75   67.30
   2 -10   4  290.50   47.94
  -2 -10  -4  326.89   22.81
   2 -10   4  421.46   68.67
  -2 -10  -4  318.37   63.36
   2 -10   4  324.89   16.90
   2  10   4  271.76   66.36
   2  10   4  339.05   23.10
  -2  10  -4  343.79   20.39
   4 -10   4  342.11   16.82
  -4 -10  -4  334.89   63.77
   4 -10   4  416.45   65.68
  -4 -10  -4  301.72   22.24
   4 -10   4  315.29   48.62
  -4  10  -4  346.90   20.89
   4  10   4  311.39   69.76
   4  10   4  321.18   22.99
  -6 -10  -4  212.26   50.25
  -6 -10  -4  296.93   21.28
   6 -10   4  286.12   14.44
   6 -10   4  213.90   48.50
   6 -10   4  291.68   44.17
   6  10   4  256.89   20.55
  -6  10  -4  284.83   18.89
   6  10   4  398.41   75.90
   8 -10   4  222.30   37.66
   8 -10   4  195.45   42.71
   8 -10   4  209.18   11.29
  -8 -10  -4  204.00   17.23
  -8 -10  -4  137.76   52.23
   8  10   4  233.93   65.72
   8  10   4  208.17   17.89
  -8  10  -4  196.19   15.49
  10 -10   4  177.82   10.10
  10 -10   4  247.90   43.56
 -10 -10  -4  183.00   59.67
 -10 -10  -4  161.94   15.46
  10 -10   4  138.02   31.28
  10  10   4  290.06   72.86
 -10  10  -4  185.59   14.83
  10  10   4  162.82   16.42
 -12 -10  -4  106.00   54.19
  12 -10   4  129.82   33.91
  12 -10   4  134.74   29.10
  12 -10   4  151.94    9.17
 -12 -10  -4  126.69   13.80
 -12  10  -4  170.97   14.37
  12  10   4  146.31   15.54
 -14 -10  -4  105.21   14.92
 -14 -10  -4   47.78   54.84
  14 -10   4  108.65   10.09
  14 -10   4   89.71    7.04
  14 -10   4  110.00    6.49
 -14 -10  -4   33.53   45.72
  14 -10   4   78.87   26.57
  14 -10   4   77.84   23.01
  14  10   4  118.76   13.47
 -14  10  -4   96.78   11.18
 -16 -10  -4   74.37   61.12
 -16 -10  -4  111.03   56.17
  16 -10   4   90.37    5.94
  16 -10   4   85.04    8.62
  16 -10   4   68.14    6.34
 -16 -10  -4   72.12   11.94
 -16  10  -4   75.12   12.52
  16  10   4   62.34   12.95
 -18 -10  -4   76.64   12.11
  18 -10   4   68.89    5.36
 -18 -10  -4  -11.97   59.74
 -18 -10  -4  -24.59   63.87
  18 -10   4   49.06    7.83
 -18  10  -4   63.45   11.02
  18  10   4   40.69   10.12
  20 -10   4   36.08    4.22
 -20 -10  -4   28.95    7.50
  20 -10   4   49.18    7.40
 -20 -10  -4   -5.10   70.78
 -20  10  -4   41.76    9.37
  20  10   4   18.22    7.34
  22 -10   4   30.69    5.14
 -22 -10  -4   17.56    6.02
 -22  10  -4   35.22    9.02
  22  10   4   35.31   10.30
 -24 -10  -4   18.90    6.23
 -24  10  -4   25.74    7.60
  24  10   4   15.66    7.24
  23 -11  -4    7.07    4.69
 -23 -11   4    2.15    5.88
  23  11  -4    2.74    4.65
  23  11  -4   12.72    7.62
 -21 -11   4    2.84    5.42
  21 -11  -4    5.61    4.37
  21  11  -4    4.24    5.60
  21  11  -4    3.16    4.98
 -19 -11   4  -23.75   98.60
 -19 -11   4    6.63    6.22
  19 -11  -4    5.05    4.50
  19 -11  -4   -8.72   54.66
 -19 -11   4   -6.08   84.78
  19  11  -4    1.41    4.02
 -19  11   4   79.20   67.02
 -17 -11   4  -31.44   86.62
  17 -11  -4    5.64    4.12
 -17 -11   4   37.79   69.50
  17 -11  -4  -33.71   50.65
 -17 -11   4    2.65    4.49
  17  11  -4    4.25    5.00
 -17  11   4   59.55   62.66
 -15 -11   4   16.39    7.09
  15 -11  -4   74.75   54.94
  15 -11  -4    1.58    3.50
 -15 -11   4   79.51   63.63
 -15 -11   4   95.16   78.78
  15  11  -4   16.59    6.25
 -15  11   4  -78.60   51.64
 -13 -11   4   25.32    8.62
 -13 -11   4  -66.77   71.06
 -13 -11   4  -33.52   56.43
  13 -11  -4   23.80   50.49
  13 -11  -4   10.48    5.30
 -13  11   4   41.58   52.15
  13  11  -4   21.04    6.88
  11 -11  -4   -6.81   40.34
  11 -11  -4   11.61    5.06
 -11 -11   4    3.63   64.77
 -11 -11   4  -20.45   48.95
 -11 -11   4    9.68    4.94
  11  11  -4    6.61    4.39
  11  11  -4    9.86    2.77
 -11  11   4  -12.78   50.97
   9 -11  -4   49.48   42.44
  -9 -11   4  -32.27   43.02
  -9 -11   4   10.91   59.35
  -9 -11   4   14.41    7.13
   9 -11  -4    5.85    4.35
  -9  11   4   12.49   42.05
   9  11  -4    7.80    2.80
   9  11  -4    4.78    3.93
  -7 -11   4   26.42   39.75
   7 -11  -4   40.62   41.94
   7 -11  -4   13.29    5.76
  -7 -11   4   31.41    8.38
  -7 -11   4    6.75   50.81
   7  11  -4   20.71    5.31
   7  11  -4   20.88    4.24
   5 -11  -4   34.91   38.29
   5 -11  -4    8.56    4.80
  -5 -11   4    6.87    2.81
  -5 -11   4    3.21    4.43
  -5 -11   4  -16.46   44.13
  -5 -11   4   29.77   36.80
   5  11  -4    4.70    2.82
  -5  11   4  -11.80   42.56
   5  11  -4    9.99    3.68
  -3 -11   4    0.80    3.39
   3 -11  -4    0.11   42.09
  -3 -11   4  -44.09   48.86
  -3 -11   4    2.27    2.07
  -3 -11   4  -41.64   31.14
   3  11  -4    1.52    2.09
  -3  11   4  -35.23   42.46
   3  11  -4    3.22    2.59
  -1 -11   4   23.93   43.50
   1 -11  -4   -0.28   40.55
  -1 -11   4   13.26    5.77
  -1 -11   4   13.20    3.30
  -1 -11   4    1.36   32.47
   1 -11  -4   14.68    5.75
  -1  11   4  -51.39   44.77
   1  11  -4   14.67    4.23
   1 -11   4    8.51    5.03
   1 -11   4   18.55   40.89
   1 -11   4   15.92    3.44
   1 -11   4   -1.91   27.47
  -1 -11  -4  -20.52   41.21
  -1 -11  -4   12.80    5.80
  -1  11  -4   16.67    4.77
   1  11   4   15.72    6.11
   1  11   4   19.43   48.09
   3 -11   4   14.15   27.08
   3 -11   4    8.51    2.41
   3 -11   4    5.09    4.63
  -3 -11  -4   25.26   47.62
   3 -11   4  -19.77   40.93
  -3 -11  -4    4.12    4.37
   3  11   4    8.05    4.97
  -3  11  -4    4.27    3.30
   3  11   4   36.26   52.54
   5 -11   4   12.04    5.15
   5 -11   4   22.09   33.62
  -5 -11  -4    3.89    3.95
   5 -11   4   -2.38   25.72
  -5 -11  -4   61.69   49.74
   5 -11   4   13.19    2.95
   5  11   4   11.38   54.21
   5  11   4    8.63    5.75
  -5  11  -4   14.28    4.66
   7 -11   4   16.03    5.61
  -7 -11  -4    9.04    5.12
   7 -11   4   -5.17   36.26
  -7 -11  -4   56.15   51.51
   7 -11   4   16.57    3.24
   7  11   4   20.93    6.57
  -7  11  -4   13.85    5.00
   7  11   4    8.31   59.91
   9 -11   4   18.98    3.44
   9 -11   4  -17.38   36.53
  -9 -11  -4   14.79   52.41
   9 -11   4   11.47    4.94
  -9 -11  -4    7.83    5.18
   9  11   4    8.27    5.34
  -9  11  -4    9.11    4.47
  11 -11   4    8.80    2.57
 -11 -11  -4   13.19   50.26
 -11 -11  -4   64.66   57.24
  11 -11   4    4.01    4.01
  11 -11   4   36.89   37.48
 -11 -11  -4   13.05    5.34
 -11  11  -4   10.96    4.97
  11  11   4    5.70    5.48
 -13 -11  -4   34.27   44.97
  13 -11   4    6.90    3.20
  13 -11   4  -10.11   31.90
 -13 -11  -4    3.53    4.65
  13 -11   4   13.99    5.26
 -13 -11  -4   -8.98   61.97
  13  11   4    7.32    5.87
 -13  11  -4   12.00    5.40
 -15 -11  -4  -14.93   63.33
  15 -11   4   13.14    2.47
  15 -11   4    4.79    4.14
 -15 -11  -4   80.56   75.48
  15 -11   4   27.03   24.78
 -15 -11  -4   17.93    6.68
 -15  11  -4   21.26    7.08
  15  11   4   18.78    7.54
 -17 -11  -4  -67.72   69.22
 -17 -11  -4   61.82   80.88
  17 -11   4    2.03    3.61
 -17 -11  -4    4.75    4.63
  17 -11   4    9.21    2.19
 -17  11  -4    4.89    4.47
  17  11   4    9.09    6.53
  19 -11   4    8.81    4.49
 -19 -11  -4    8.64    5.31
 -19  11  -4    2.52    4.06
  19  11   4    8.30    6.04
 -21 -11  -4    0.43    4.19
 -21  11  -4    5.46    4.79
  21  11   4    3.72    5.81
  20 -12  -4   13.84    6.10
 -20 -12   4   12.38    7.51
  20  12  -4   18.63    7.00
 -18 -12   4   20.86    8.75
 -18 -12   4  105.33  102.39
  18 -12  -4   26.93    7.13
  18  12  -4   25.63    8.18
  16 -12  -4   43.76    8.99
 -16 -12   4  -29.39   85.98
 -16 -12   4   42.64   10.28
 -16 -12   4   53.64   79.54
  16  12  -4   46.41   10.23
 -14 -12   4   39.57   10.67
 -14 -12   4    0.89   77.65
 -14 -12   4   45.57   99.12
  14 -12  -4   33.19    7.75
 -14  12   4  -78.71   69.42
  14  12  -4   54.42   11.12
  12 -12  -4   64.49   66.64
 -12 -12   4   87.31   72.83
 -12 -12   4   55.31   12.84
  12 -12  -4   54.65   10.30
 -12 -12   4   44.10   89.22
  12  12  -4   55.11    9.86
 -12  12   4   36.92   70.65
 -10 -12   4   50.74   11.77
 -10 -12   4   18.05   80.44
  10 -12  -4   68.41   61.13
  10 -12  -4   71.94   11.63
 -10 -12   4   28.16   64.26
 -10  12   4  -10.93   58.83
  10  12  -4   78.79   11.91
   8 -12  -4    4.51   57.22
  -8 -12   4  101.70   76.46
   8 -12  -4   95.52   14.04
  -8 -12   4   62.06   56.31
  -8 -12   4   89.30   16.08
   8  12  -4   96.28    8.15
   8  12  -4   92.79    9.79
  -8  12   4   10.67   60.26
  -6 -12   4  208.08   61.24
   6 -12  -4  102.83   15.50
  -6 -12   4   87.47   70.27
   6 -12  -4  150.35   69.07
  -6 -12   4  130.26   18.35
   6  12  -4   93.37    8.82
   6  12  -4  113.72   10.33
  -4 -12   4  107.10   60.95
   4 -12  -4  138.73   14.05
  -4 -12   4  130.85   17.81
   4 -12  -4   75.34   57.05
  -4 -12   4   82.95   67.95
   4  12  -4  116.39   10.12
  -4  12   4   -0.14   57.56
   4  12  -4  105.71    9.53
  -2 -12   4  103.08    8.56
  -2 -12   4  136.36   14.50
   2 -12  -4  133.65   61.13
   2 -12  -4   96.63   14.34
  -2 -12   4   18.18   65.69
  -2  12   4   96.84   68.28
   2  12  -4  109.18   10.10
   0 -12   4   15.10   50.31
   0 -12  -4   81.28   60.41
   0 -12   4  111.93   15.93
   0 -12  -4  109.55   15.25
   0 -12   4  111.87    8.42
   0  12  -4  117.10   10.68
   0  12   4  -98.55   57.11
   2 -12   4  131.98   13.89
   2 -12   4  121.04   62.76
  -2 -12  -4   93.35   14.83
  -2 -12  -4   42.14   59.76
   2 -12   4  114.02    8.30
   2  12   4    5.57   67.67
  -2  12  -4  110.22   10.95
  -4 -12  -4  139.77   14.61
   4 -12   4  116.46    8.53
   4 -12   4  127.37   14.07
  -4 -12  -4   30.09   61.71
   4 -12   4  111.38   59.03
   4  12   4  160.59   15.07
  -4  12  -4  118.57   11.83
   6 -12   4   77.21   55.59
  -6 -12  -4   64.59   64.11
  -6 -12  -4  116.54   16.83
   6 -12   4  128.86   13.66
   6  12   4  120.97   13.85
  -6  12  -4  116.07   11.97
  -8 -12  -4   97.81   14.61
   8 -12   4  102.54   14.36
   8 -12   4  121.82   58.41
  -8 -12  -4  114.32   64.05
  -8 -12  -4   39.71   67.02
  -8  12  -4   91.05   10.80
   8  12   4   73.95   12.92
 -10 -12  -4  140.18   72.33
  10 -12   4  163.19   54.35
  10 -12   4  118.97   12.28
 -10 -12  -4   60.90   12.19
 -10 -12  -4   98.98   75.39
  10  12   4   88.77   14.70
 -10  12  -4   80.49   12.26
  12 -12   4   77.25   11.91
 -12 -12  -4  -66.90   69.61
 -12 -12  -4  -20.97   75.98
  12 -12   4   89.03   51.36
 -12 -12  -4   54.15   11.55
 -12  12  -4   65.51   11.85
  12  12   4   60.98   12.11
 -14 -12  -4  142.28   91.30
  14 -12   4   51.63    9.69
 -14 -12  -4  -42.42   76.70
 -14 -12  -4   45.61   10.22
  14 -12   4   37.85   41.47
 -14  12  -4   42.09    8.95
  14  12   4   36.83   10.02
  16 -12   4   44.59    8.94
 -16 -12  -4   23.12    7.53
 -16 -12  -4   28.76  136.39
 -16  12  -4   31.22    8.11
  16  12   4   36.86    9.30
 -18 -12  -4   13.74    7.14
  18 -12   4   26.35    7.22
 -18  12  -4   25.04    7.57
  18  12   4   28.22    9.52
  15 -13  -4    8.18    5.41
 -15 -13   4    1.40    5.49
  15  13  -4    7.25    5.32
 -13 -13   4   -0.28    4.81
  13 -13  -4   -3.06    2.92
  13  13  -4   -0.79    2.84
  11 -13  -4    1.84    4.11
 -11 -13   4   -1.88    3.83
  11  13  -4    4.24    4.12
   9 -13  -4   -1.11    3.14
  -9 -13   4    4.19    5.21
   9  13  -4    5.22    4.09
  -7 -13   4    7.09    6.13
   7 -13  -4    2.34    4.54
   7  13  -4    2.40    3.17
   5 -13  -4    0.89    4.34
  -5 -13   4    2.76    4.89
   5  13  -4    1.16    2.36
   3 -13  -4   88.80   82.87
  -3 -13   4   48.98   73.25
   1 -13  -4   -2.04    3.19
  -1 -13   4    5.21    5.38
  -1 -13   4   40.10   79.65
   1 -13  -4  -42.19   69.01
   1  13  -4    0.85    2.41
   1 -13   4   -3.03    3.17
   1 -13   4   95.50   74.70
  -1 -13  -4   -2.18    3.06
  -1 -13  -4  -48.17   83.75
  -1  13  -4    1.58    2.84
  -3 -13  -4    2.70   58.25
  -3 -13  -4   -0.06    3.81
   3 -13   4   -6.87   75.35
   3 -13   4    1.60    4.11
  -3  13  -4    6.53    4.26
  -5 -13  -4   -1.33    2.98
   5 -13   4  109.27   83.73
   5 -13   4    0.06    3.85
  -5 -13  -4 -114.57   78.51
  -5  13  -4   15.72    5.46
   5  13   4    6.06    5.17
  -7 -13  -4   33.78   81.14
  -7 -13  -4   59.56   68.83
   7 -13   4   71.08  104.77
  -9 -13  -4   89.66   83.02
   9 -13   4   -1.07    3.72
  -9 -13  -4  -68.55   86.61
  -9 -13  -4    0.22    3.15
   9  13   4   -3.34    3.08
  -9  13  -4    5.83    4.25
  11 -13   4    3.64    4.88
 -11 -13  -4  -35.50   87.47
 -11 -13  -4   25.29   71.93
 -11 -13  -4    5.09    5.18
  11  13   4    5.88    5.66
 -11  13  -4    2.93    3.76
  13 -13   4   35.51   75.17
 -13 -13  -4   93.56  100.92
  15 -13   4   -0.14    3.51
 -15 -13  -4    3.85    5.80
 -15  13  -4    0.73    3.37
  15  13   4    5.24    4.37
  10 -14  -4   30.35    8.50
 -10 -14   4   28.69    9.87
  10  14  -4   29.07    7.65
   8 -14  -4   60.73   12.22
  -8 -14   4   54.08   12.51
  -6 -14   4   53.74   12.71
   6 -14  -4   66.45   12.47
  -4 -14   4   61.33   13.34
   4 -14  -4   74.04   13.76
  -2 -14   4   56.11   12.21
   2 -14  -4   56.32   11.67
   0 -14  -4   55.36   11.62
   0 -14   4   99.12   17.51
   2 -14   4   75.86   13.93
  -2 -14  -4   61.43   12.64
  -4 -14  -4   45.70   11.38
   4 -14   4   41.10   10.68
  -4  14  -4   42.62    8.99
   6 -14   4   62.55   12.73
  -6 -14  -4   52.65   12.15
  -6  14  -4   63.97   10.78
   6  14   4   56.89   12.42
  -8 -14  -4   30.71    8.98
   8 -14   4   57.92   12.04
   8  14   4   40.57   10.57
  -8  14  -4   39.38    8.97
  10 -14   4   33.62    9.64
 -10 -14  -4   28.31    9.22
  10  14   4   20.51    8.00
  34   0  -5   -0.76    3.97
  34   0  -5    0.06    3.11
  32   0  -5    4.51    4.99
  32   0  -5   -0.92    2.17
 -30   0   5   20.66   54.07
  30   0  -5   42.60   45.84
  28   0  -5   32.01   39.16
 -28   0   5   38.36   47.07
  28   0  -5    3.89    3.92
  28   0  -5   13.03    4.30
  26   0  -5   27.86    7.20
  26   0  -5   27.98   28.12
  26   0  -5   25.03    5.31
 -26   0   5   21.86   39.74
 -24   0   5   19.97    3.53
  24   0  -5   12.18    4.06
 -24   0   5    7.25   28.76
  24   0  -5    9.54    4.45
  24   0  -5    4.71   22.60
  22   0  -5    5.79    3.31
  22   0  -5  -10.43   22.28
 -22   0   5    4.50    2.40
 -22   0   5   15.93   26.96
 -22   0   5    2.78    2.40
  22   0  -5    7.52    3.04
  20   0  -5   36.00    5.93
 -20   0   5   24.64   21.60
 -20   0   5   38.88    5.68
  20   0  -5   38.87    6.71
  20   0  -5   69.59   24.66
  18   0  -5   39.55    5.94
  18   0  -5   64.89   22.77
 -18   0   5   55.28    6.95
  16   0  -5   51.97    5.51
 -16   0   5   30.99   18.68
  16   0  -5   50.05   19.87
 -16   0   5   49.79    5.12
  14   0  -5    2.38    2.06
  14   0  -5  -11.11   11.64
 -14   0   5    2.09    1.92
 -14   0   5   10.52   14.57
 -12   0   5   38.93   17.84
  12   0  -5   18.50    3.80
  12   0  -5   10.63   10.05
 -12   0   5   34.11    5.17
 -10   0   5    2.24    1.75
  10   0  -5    8.45   10.61
  10   0  -5    0.11    1.36
 -10   0   5  -12.59   11.80
  -8   0   5   43.37    4.59
   8   0  -5   38.95    4.23
  -8   0   5   47.72   17.44
   8   0  -5   47.24   17.08
   6   0  -5   20.29    3.52
  -6   0   5   12.69   11.21
  -6   0   5   17.94    3.47
   6   0  -5   32.29   11.51
  -4   0   5  108.59    7.82
  -4   0   5  142.96   25.29
   4   0  -5  115.82   21.62
   4   0  -5  126.34    7.83
   2   0  -5    2.54    1.47
   2   0  -5    1.51    1.26
   2   0  -5    3.81    7.82
  -2   0   5   -8.82    6.10
  -2   0   5    1.47    1.36
   0   0  -5   19.06    3.01
   0   0  -5   14.71   10.69
   0   0   5   21.63    3.81
   0   0   5   18.75   10.00
   0   0  -5   16.12    2.98
  -2   0  -5   44.67    4.27
   2   0   5   33.65   12.42
   2   0   5   43.71    4.15
  -2   0  -5   37.56    3.62
  -2   0  -5   44.97   13.19
  -4   0  -5  222.06   11.64
   4   0   5  230.41   11.96
   4   0   5  229.84   26.76
  -4   0  -5  231.15   12.74
   4   0   5  220.54   12.40
  -4   0  -5  251.56   26.69
  -6   0  -5   64.17   16.58
   6   0   5   79.52    5.84
  -6   0  -5   76.26    6.00
   6   0   5   68.48    5.51
   6   0   5   91.01   19.49
  -6   0  -5   69.42    4.84
   8   0   5   37.67    4.93
  -8   0  -5   42.84   13.22
   8   0   5   39.05    4.24
   8   0   5   31.36   13.39
  -8   0  -5   33.76    3.94
  -8   0  -5   33.23    2.90
 -10   0  -5   16.11    2.05
 -10   0  -5    8.34    8.59
 -10   0  -5   19.73    2.63
  10   0   5   21.64    3.86
 -10   0  -5   17.53    3.39
 -10   0  -5   18.13    3.75
  10   0   5   13.53   10.56
  10   0   5   14.50    3.51
 -12   0  -5    6.86    2.63
 -12   0  -5    4.45    9.10
  12   0   5    7.91   10.55
  12   0   5    8.61    2.57
  12   0   5    4.58    2.64
 -12   0  -5    4.89    2.09
  14   0   5  103.22    8.85
 -14   0  -5   94.08    7.36
 -14   0  -5   83.43    7.38
  14   0   5  100.11    7.41
  14   0   5  118.84   23.66
 -14   0  -5   99.31   20.16
 -16   0  -5   60.48    6.09
  16   0   5   69.05    6.14
  16   0   5   42.83   18.10
 -16   0  -5   55.97    5.69
  16   0   5   62.93    7.19
 -16   0  -5   50.99   17.69
 -18   0  -5   12.19    3.49
 -18   0  -5    6.34   14.26
 -18   0  -5   14.81    3.32
  18   0   5    9.45    3.82
  18   0   5   15.81    3.84
  18   0   5   -0.27   16.32
  20   0   5   10.78    3.55
  20   0   5    8.51    4.14
 -20   0  -5    1.05   12.74
 -20   0  -5    8.72    3.06
 -20   0  -5    2.41   13.89
 -22   0  -5   49.40   17.99
  22   0   5   60.01    6.55
 -22   0  -5   46.55    6.94
  22   0   5   66.98   10.64
 -22   0  -5   22.21   16.67
 -24   0  -5   15.37   17.38
  24   0   5    9.50    4.80
 -24   0  -5    7.85    3.20
  24   0   5    6.22    3.18
 -24   0  -5    0.06   16.76
  26   0   5    3.86    4.50
 -26   0  -5    3.65   17.97
 -26   0  -5   11.07    3.54
 -26   0  -5   20.07   18.06
 -28   0  -5    1.04   15.11
  28   0   5    5.62    4.48
 -28   0  -5    5.61    2.98
  30   0   5    8.16    5.69
 -30   0  -5   17.95    4.24
  32   0   5    2.29    4.55
  33  -1  -5   13.83    5.56
  33  -1  -5    1.44    2.88
  33   1  -5    2.37    4.55
  33   1  -5    3.73    3.87
  31  -1  -5    5.95    5.07
  31  -1  -5   13.16    4.30
 -31  -1   5  -82.44   56.44
  31  -1  -5   65.71   48.82
  31   1  -5   15.98    6.08
  31   1  -5    9.52    4.44
 -31   1   5  -18.97   58.90
  29  -1  -5   10.28    3.82
  29  -1  -5  -59.37   36.37
 -29  -1   5    7.57   55.82
  29  -1  -5   17.86    6.37
 -29   1   5  -78.19   43.29
  29   1  -5   16.45    4.77
  29   1  -5   41.73   45.93
  29   1  -5   17.47    6.22
  27  -1  -5   64.13   35.72
  27  -1  -5   22.94    6.39
 -27  -1   5   34.30   45.89
  27  -1  -5   37.14    6.48
  27   1  -5   34.08    7.96
 -27   1   5   25.67   42.37
  27   1  -5   35.08   32.50
  27   1  -5   42.44    7.18
  25  -1  -5   52.93   29.55
 -25  -1   5  -13.81   30.91
  25  -1  -5   66.37    6.97
 -25  -1   5   65.15    6.64
  25  -1  -5   58.94    9.58
  25   1  -5   64.21    8.82
  25   1  -5   65.56   10.74
 -25   1   5   20.43   35.96
  25   1  -5   94.53   34.56
  23  -1  -5   70.88   10.50
 -23  -1   5   72.20    7.38
 -23  -1   5   55.78   36.95
  23  -1  -5   69.31    6.98
 -23  -1   5   64.67    6.25
  23  -1  -5  136.06   31.64
  23   1  -5   67.16    7.23
  23   1  -5   62.80    9.82
 -23   1   5   37.02   33.49
 -23   1   5   77.91    5.35
  23   1  -5   62.60   26.68
  21  -1  -5   76.32    7.26
 -21  -1   5   89.51    7.46
  21  -1  -5   73.46   27.66
 -21  -1   5   80.41    8.20
  21   1  -5   73.74    8.47
  21   1  -5   79.81    7.67
 -21   1   5   96.47    7.38
 -21   1   5   94.20   30.94
  21   1  -5   71.98   26.65
 -21   1   5   86.43    6.49
  19  -1  -5  118.88   30.28
  19  -1  -5  149.58   10.64
 -19  -1   5  125.16   32.35
 -19  -1   5  169.47   10.90
 -19   1   5  148.97   35.77
  19   1  -5  153.98   32.94
  19   1  -5  161.51   12.20
  19   1  -5  160.07   11.04
 -19   1   5  160.61   10.15
 -17  -1   5  322.59   18.61
  17  -1  -5  369.92   18.99
 -17  -1   5  293.42   45.84
  17  -1  -5  334.83   38.39
  17   1  -5  399.40   43.95
 -17   1   5  399.77   46.36
  17   1  -5  351.43   18.89
 -17   1   5  327.18   18.24
  17   1  -5  370.16   20.29
  15  -1  -5  480.60   45.44
 -15  -1   5  491.83   50.75
  15  -1  -5  488.05   23.71
 -15  -1   5  450.44   23.65
  15   1  -5  429.71   45.30
  15   1  -5  473.00   23.71
 -15   1   5  460.20   23.49
  15   1  -5  482.19   24.56
  13  -1  -5  355.70   18.92
 -13  -1   5  366.72   42.50
 -13  -1   5  354.90   19.17
  13  -1  -5  348.72   37.57
  13   1  -5  364.05   39.14
 -13   1   5  337.86   40.12
 -13   1   5  358.41   19.12
  13   1  -5  403.97   19.45
 -11  -1   5  467.87   46.87
  11  -1  -5  482.51   23.50
  11  -1  -5  464.76   42.64
 -11  -1   5  489.85   23.80
  11   1  -5  475.97   23.36
 -11   1   5  481.18   23.79
  11   1  -5  474.81   42.36
 -11   1   5  418.60   44.63
   9  -1  -5  923.55   64.30
  -9  -1   5 1059.74   70.99
   9  -1  -5  983.08   43.94
  -9  -1   5  928.26   43.93
  -9   1   5  981.97   44.33
   9   1  -5 1083.18   67.64
  -9   1   5  966.11   69.28
  -7  -1   5 2144.98  117.59
   7  -1  -5 2118.72  113.98
   7   1  -5 2048.51  112.74
  -7   1   5 2159.72  118.12
  -5  -1   5 1670.78   96.74
   5  -1  -5 1567.11   93.10
  -5   1   5 1680.63   97.15
   5   1  -5 1762.77   94.47
  -3  -1   5 2039.90  110.78
   3  -1  -5 2061.90  109.92
  -3   1   5 2103.73  112.83
   3   1  -5 1931.74  106.58
   1  -1  -5 2398.30  126.08
  -1  -1   5 2495.79  127.31
  -1   1   5 2455.87  128.71
   1   1  -5 2427.47  123.56
  -1  -1  -5 1553.98   88.06
   1  -1   5 1519.13   87.44
  -1   1  -5 1496.51   84.10
   1   1   5 1572.50   90.18
   3  -1   5 2466.90  122.27
  -3  -1  -5 2504.57  124.53
   3   1   5 2233.22  123.16
  -3   1  -5 2287.02  118.04
  -5  -1  -5 2297.05  123.14
   5  -1   5 2544.44  123.14
   5   1   5 2247.02  124.25
  -5   1  -5 2481.98  119.75
   7  -1   5 1389.12   78.63
  -7  -1  -5 1329.04   80.96
  -7  -1  -5 1402.52   61.33
   7   1   5 1430.41   83.45
  -7   1  -5 1350.99   76.23
  -9  -1  -5 1360.19   79.45
  -9  -1  -5 1231.60   57.63
  -9  -1  -5 1238.74   56.13
   9  -1   5 1285.43   56.27
   9  -1   5 1253.14   74.17
   9   1   5 1370.73   57.46
  -9   1  -5 1331.44   72.98
   9   1   5 1362.82   80.15
  11  -1   5  962.16   41.88
  11  -1   5  928.72   40.61
 -11  -1  -5  990.67   42.89
  11  -1   5  895.46   57.14
 -11  -1  -5  911.61   40.06
 -11  -1  -5  981.23   64.30
  11   1   5  902.21   43.19
 -11   1  -5  884.66   55.35
  11   1   5  908.18   42.07
 -11   1  -5  889.82   40.28
  11   1   5  855.98   61.97
 -11   1  -5  892.42   41.97
  13  -1   5  601.93   27.61
  13  -1   5  631.10   44.22
 -13  -1  -5  476.78   44.43
 -13  -1  -5  581.86   25.86
 -13  -1  -5  590.46   29.35
  13  -1   5  619.06   29.37
 -13  -1  -5  569.66   25.64
 -13  -1  -5  567.44   28.24
 -13   1  -5  616.86   42.23
 -13   1  -5  622.96   29.39
 -13   1  -5  608.09   27.56
  13   1   5  622.39   30.94
  13   1   5  611.60   49.37
  15  -1   5  679.48   29.95
 -15  -1  -5  642.68   31.49
 -15  -1  -5  667.51   52.03
  15  -1   5  671.40   46.43
 -15  -1  -5  641.75   30.50
  15  -1   5  640.11   31.85
  15   1   5  665.90   54.78
 -15   1  -5  595.61   42.92
  15   1   5  632.25   33.25
 -15   1  -5  647.73   31.29
  15   1   5  599.88   31.05
 -15   1  -5  628.08   29.74
  17  -1   5  311.52   19.08
 -17  -1  -5  313.70   17.34
  17  -1   5  323.71   16.96
  17  -1   5  332.23   32.45
 -17  -1  -5  330.71   37.27
 -17  -1  -5  331.21   18.52
  17   1   5  331.39   18.54
  17   1   5  302.60   20.12
 -17   1  -5  305.42   28.38
 -17   1  -5  331.31   18.45
  19  -1   5  247.85   14.23
 -19  -1  -5  252.07   14.57
 -19  -1  -5  272.91   38.14
  19  -1   5  238.28   16.55
 -19   1  -5  285.01   26.37
 -19   1  -5  250.95   15.45
  19   1   5  231.40   15.36
  19   1   5  255.12   18.02
 -19   1  -5  243.36   24.85
 -21  -1  -5  161.43   29.31
  21  -1   5  123.90   11.43
 -21  -1  -5  137.48    9.64
  21  -1   5  135.25    9.53
 -21  -1  -5  114.47   27.38
 -21   1  -5  118.98   18.44
 -21   1  -5  138.99   10.64
  21   1   5  121.13   12.32
  21   1   5  121.10   10.42
 -21   1  -5  144.96   19.37
  23  -1   5   81.57    7.38
 -23  -1  -5   57.52   24.15
 -23  -1  -5   76.45    7.19
 -23  -1  -5   70.19   25.49
  23  -1   5   89.27    9.89
 -23   1  -5   86.21    8.34
  23   1   5   64.87   11.01
 -23   1  -5   73.30   13.48
 -23   1  -5   76.49   12.93
 -25  -1  -5   28.51   24.39
 -25  -1  -5   67.81    6.66
  25  -1   5   81.69   12.09
  25  -1   5   66.27    7.12
 -25  -1  -5   57.78   24.85
 -25   1  -5   55.80    8.42
  25   1   5   59.73   11.43
  27  -1   5   35.32    8.00
 -27  -1  -5   65.09   29.39
 -27  -1  -5   36.03    5.74
  27   1   5   33.34    8.70
 -27   1  -5   28.80    6.23
 -29  -1  -5   21.48   30.19
 -29  -1  -5   12.25    3.58
  29  -1   5   14.51    5.78
 -29   1  -5   28.13    6.10
  29   1   5   12.04    6.63
  31  -1   5   14.24    6.82
 -31   1  -5   18.55    5.23
  31   1   5   15.43    6.48
  33  -1   5    7.15    5.65
  33   1   5    9.33    6.58
  34  -2  -5    8.56    5.88
  34   2  -5   -1.36    4.14
  32  -2  -5    0.63    3.71
  32  -2  -5    0.99    2.81
  32   2  -5    4.41    3.89
 -32   2   5   13.70  100.32
  32   2  -5    2.48    4.38
  30  -2  -5   -0.70    2.99
 -30  -2   5   65.95   69.65
  30  -2  -5    9.22    4.13
  30  -2  -5   19.51   41.18
 -30   2   5    1.43   51.86
  30   2  -5   14.40    5.38
  30   2  -5   20.76    5.49
  28  -2  -5   23.06   34.45
  28  -2  -5   10.67    5.20
  28  -2  -5   18.29    4.35
 -28  -2   5  -20.21   46.88
  28   2  -5   12.31    4.27
  28   2  -5   29.62   37.75
 -28   2   5  -31.15   39.19
  28   2  -5   16.87    5.92
 -26  -2   5   12.02    3.76
  26  -2  -5   15.53    5.35
  26  -2  -5   11.26   31.31
  26  -2  -5   21.50    4.86
 -26  -2   5   -8.77   38.49
  26   2  -5   23.82    5.58
  26   2  -5   24.02    6.66
 -26   2   5   32.43   38.09
  26   2  -5   20.15   32.20
 -24  -2   5   21.35    5.07
 -24  -2   5   27.78   39.28
  24  -2  -5   29.68    5.52
 -24  -2   5   22.87    4.54
  24  -2  -5   15.13    5.43
  24  -2  -5   20.94   26.22
 -24   2   5  -14.06   28.58
  24   2  -5    0.32   29.69
  24   2  -5   23.15    6.23
  24   2  -5   26.30    5.59
 -22  -2   5   19.51    4.40
 -22  -2   5    2.08   26.72
  22  -2  -5    9.65    3.22
 -22  -2   5   13.33    4.49
  22  -2  -5   -0.03   18.73
  22   2  -5    5.01    3.56
 -22   2   5   -1.99   22.68
  22   2  -5   13.90   23.13
  22   2  -5   11.55    4.08
 -20  -2   5   31.46   24.02
 -20  -2   5   22.76    4.61
  20  -2  -5   26.27   20.38
  20  -2  -5   20.77    4.37
  20   2  -5   31.72    6.25
  20   2  -5    1.73   20.13
 -20   2   5   -0.65   19.44
 -20   2   5   33.05    4.22
  20   2  -5   30.95    5.67
  18  -2  -5   72.40    6.79
  18  -2  -5  135.12   29.12
 -18  -2   5   65.77   28.41
 -18  -2   5   86.54    7.31
  18   2  -5   58.32   23.53
 -18   2   5   71.18    6.03
 -18   2   5  114.25   27.84
  18   2  -5   68.99    7.04
  18   2  -5   68.65    7.68
 -16  -2   5  103.56    8.21
  16  -2  -5   89.16    7.78
  16  -2  -5  129.74   28.90
 -16  -2   5  101.38   30.57
  16   2  -5  106.60    9.08
  16   2  -5  111.72    8.57
 -16   2   5  106.81   28.02
  16   2  -5  135.68   29.54
 -16   2   5  112.78    8.11
 -14  -2   5   26.16   18.74
  14  -2  -5   38.23    5.54
  14  -2  -5   29.02   16.45
 -14  -2   5   34.48    5.36
  14   2  -5   38.22    5.53
  14   2  -5   57.74   22.03
  14   2  -5   54.95    7.26
 -14   2   5   43.77    4.78
 -12  -2   5   39.00   19.08
  12  -2  -5   42.51    5.73
  12  -2  -5   19.92   14.47
 -12  -2   5   44.90    4.83
 -12   2   5   43.02    5.82
 -12   2   5   28.56   17.04
  12   2  -5   30.57    4.96
  12   2  -5   38.67   17.93
  12   2  -5   33.00    5.04
 -10  -2   5   97.24    7.30
  10  -2  -5   88.73    7.10
  10  -2  -5  106.47   23.25
 -10  -2   5  108.86   27.80
  10   2  -5   89.77    7.01
  10   2  -5   88.10    6.90
 -10   2   5  129.79   27.34
  10   2  -5  123.84   25.54
 -10   2   5   91.08    7.26
   8  -2  -5  100.73   22.58
   8  -2  -5   98.91    7.76
  -8  -2   5  100.61    7.60
  -8  -2   5  105.54   25.46
   8   2  -5  122.48   25.19
  -8   2   5  179.91   32.01
   8   2  -5  123.90    7.91
  -8   2   5  116.31    8.33
  -6  -2   5  178.64   10.90
   6  -2  -5  202.51   31.24
  -6  -2   5  209.46   27.25
   6  -2  -5  189.80   11.31
   6   2  -5  171.82   27.17
  -6   2   5  183.39   11.47
   6   2  -5  176.79   10.56
  -6   2   5  219.76   34.44
  -4  -2   5   32.43   14.20
   4  -2  -5   15.83   13.06
   4  -2  -5   34.30    4.96
   4  -2  -5   40.30    5.57
  -4  -2   5   40.84    5.29
  -4   2   5   14.88   12.30
   4   2  -5   29.21    4.03
   4   2  -5   35.78   13.46
  -4   2   5   34.06    5.11
   2  -2  -5   56.82    5.54
  -2  -2   5   54.31    4.80
  -2  -2   5   64.25   17.70
   2  -2  -5   48.76    4.85
   2  -2  -5   59.89   17.46
   2   2  -5   48.76    4.33
  -2   2   5   46.38    4.98
   2   2  -5   54.18   15.90
  -2   2   5   34.13   16.79
   0  -2   5   59.69    4.90
   0  -2   5   59.73   16.30
   0  -2  -5   55.00    5.60
   0  -2  -5   56.60    5.24
   0  -2  -5   71.55   19.32
   0   2  -5   61.20    4.02
   0   2   5   57.50    5.60
   0   2   5   78.24   20.80
   0   2  -5   58.14    4.55
   0   2  -5   77.49   16.91
  -2  -2  -5   -2.48    9.72
   2  -2   5   -6.71    7.48
  -2  -2  -5    2.13    1.66
  -2  -2  -5    0.32    1.62
   2  -2   5    4.76    1.75
   2   2   5    5.06    2.30
   2   2   5   -1.55   10.23
   2   2   5    4.19    2.05
  -2   2  -5    3.82    1.42
  -2   2  -5    9.65    7.92
  -2   2  -5    4.29    1.19
  -4  -2  -5   57.89   17.50
  -4  -2  -5   78.83    7.17
   4  -2   5   81.63    5.57
   4  -2   5   64.36   15.67
  -4  -2  -5   79.75    6.18
   4   2   5   78.98    6.61
  -4   2  -5   65.39   14.66
  -4   2  -5   71.79    4.19
   4   2   5   76.14   20.85
  -4   2  -5   71.61    4.75
   4   2   5   71.06    6.41
  -6  -2  -5  166.75   10.22
  -6  -2  -5  155.89   11.48
   6  -2   5  162.42    9.39
   6  -2   5  169.04    8.26
   6  -2   5  182.83   23.23
  -6  -2  -5  141.65   26.34
   6   2   5  168.53   28.85
   6   2   5  176.94   11.41
  -6   2  -5  177.24   10.86
  -6   2  -5  169.94    8.44
  -6   2  -5  188.32   20.68
   6   2   5  180.83   11.35
  -6   2  -5  177.33    8.21
   8  -2   5   20.61   10.85
  -8  -2  -5   36.40    4.81
  -8  -2  -5    4.82   10.94
   8  -2   5   33.53    3.20
   8  -2   5   30.15    2.88
  -8  -2  -5   31.84    5.66
  -8   2  -5   28.40   10.94
  -8   2  -5   36.94    5.70
  -8   2  -5   28.82    2.41
   8   2   5   43.46   18.24
   8   2   5   30.87    5.31
   8   2   5   28.88    5.42
 -10  -2  -5   17.45    3.48
 -10  -2  -5   17.39    4.31
  10  -2   5   -2.24    9.03
 -10  -2  -5   14.52    3.08
  10  -2   5   15.26    2.70
 -10  -2  -5   10.30   12.06
  10  -2   5   14.00    2.75
  10   2   5   10.85    3.14
  10   2   5   14.07   14.25
  10   2   5    6.55    3.00
 -10   2  -5    1.16    7.25
 -10   2  -5    5.88    2.33
 -12  -2  -5   30.65    4.51
 -12  -2  -5   22.95    3.71
 -12  -2  -5   26.53    3.84
  12  -2   5   30.63    3.87
 -12  -2  -5   26.68   17.86
 -12  -2  -5   30.09    5.82
  12  -2   5   12.65    9.53
  12  -2   5   25.83    4.37
 -12   2  -5   28.57   10.47
  12   2   5   24.07    5.57
 -12   2  -5   17.61    4.00
  12   2   5   19.66    4.25
  12   2   5   18.08   14.80
  14  -2   5   25.90    4.82
 -14  -2  -5   29.28    4.60
 -14  -2  -5   22.68    3.36
  14  -2   5    7.94   11.09
 -14  -2  -5   21.98    4.63
 -14  -2  -5   16.17   15.40
 -14  -2  -5   26.71    3.60
  14  -2   5   19.76    3.26
 -14   2  -5   21.96    4.80
 -14   2  -5   34.14   11.03
  14   2   5   18.22    5.23
  14   2   5   33.11    6.03
  14   2   5   16.91   15.95
 -16  -2  -5   58.89    3.99
  16  -2   5   59.84    4.79
 -16  -2  -5   57.26    6.40
 -16  -2  -5   51.77    5.31
  16  -2   5   57.86   14.12
 -16  -2  -5   80.83   25.05
 -16  -2  -5   54.69    3.95
  16  -2   5   55.90    6.20
  16   2   5   35.59   22.48
 -16   2  -5   58.24    6.48
  16   2   5   56.99    9.60
 -16   2  -5   31.42   10.07
  16   2   5   59.46    8.06
 -18  -2  -5   19.97   20.84
  18  -2   5   16.65    3.06
  18  -2   5   12.42    4.02
 -18  -2  -5   19.63    3.68
  18   2   5   11.62    3.84
 -18   2  -5    2.83    7.01
 -18   2  -5    9.41    3.33
 -18   2  -5   16.34    7.55
  18   2   5   16.06    5.40
  20  -2   5   18.07    5.18
 -20  -2  -5    3.24   19.70
  20  -2   5   21.12    3.90
 -20  -2  -5   18.23    3.84
 -20   2  -5   14.74    4.57
  20   2   5   19.81    6.44
 -22  -2  -5   42.12   24.95
  22  -2   5   23.82    4.37
 -22  -2  -5   30.19    4.74
 -22  -2  -5   12.93   22.78
  22  -2   5   32.96    6.64
 -22   2  -5   29.66    5.86
  22   2   5   25.24    7.04
  24  -2   5   11.48    4.55
  24  -2   5   14.04    3.56
 -24  -2  -5   -5.13   25.77
 -24  -2  -5   21.10   26.60
 -24  -2  -5    8.49    2.79
 -24   2  -5   11.80    4.42
  24   2   5   20.48    7.29
  26  -2   5    3.59    3.84
 -26  -2  -5   12.13    3.04
  26  -2   5    9.93    3.55
 -26  -2  -5    7.98   29.78
  26   2   5    3.31    4.78
 -26   2  -5   14.24    4.57
 -28  -2  -5   32.53   35.86
  28  -2   5    3.59    3.93
 -28   2  -5    0.56    2.45
  28   2   5    6.02    5.81
 -30  -2  -5  -32.74   41.11
  30  -2   5    2.19    3.97
  30   2   5   10.86    6.32
 -30   2  -5    2.24    2.97
  32  -2   5    1.67    3.99
 -32  -2  -5  -20.70   48.45
 -32   2  -5    4.10    3.80
  32   2   5    3.61    4.92
  33  -3  -5    5.75    3.70
  33  -3  -5    5.96    5.17
  33   3  -5    7.71    5.85
  33   3  -5    5.35    4.37
  31  -3  -5  -14.72   43.28
  31  -3  -5    4.52    3.31
  31  -3  -5    4.36    4.80
  31   3  -5    5.32    4.89
  31   3  -5   17.22    5.51
 -31   3   5   49.05   53.99
 -29  -3   5   -0.65    1.16
  29  -3  -5   23.68   39.56
  29  -3  -5   12.20    5.59
 -29  -3   5  -57.86   64.61
  29  -3  -5   17.38    4.24
  29   3  -5   24.19    7.34
  29   3  -5   16.61    5.18
 -29   3   5 -101.51   42.73
  27  -3  -5   34.56   32.62
  27  -3  -5   22.60    6.46
 -27  -3   5   23.43    5.26
 -27  -3   5  -54.10   42.01
 -27  -3   5   -0.22    1.43
  27   3  -5  -32.12   36.96
 -27   3   5    1.34   37.09
  27   3  -5   27.56    7.67
 -25  -3   5   -7.40   38.83
 -25  -3   5   41.52    6.75
 -25  -3   5   57.28    8.93
  25  -3  -5   55.16   32.24
  25  -3  -5   45.43    7.10
  25   3  -5   22.17   33.83
  25   3  -5   62.43    9.28
  25   3  -5   37.40    8.59
 -25   3   5   19.24   36.51
 -23  -3   5    5.10   32.44
  23  -3  -5   32.84   25.12
  23  -3  -5   55.95    7.58
 -23  -3   5   51.89    7.48
 -23  -3   5   70.59   10.19
  23   3  -5   50.88    9.42
  23   3  -5   76.73   32.60
 -23   3   5  104.33   35.95
  23   3  -5   53.67    8.43
  21  -3  -5   79.02    7.54
  21  -3  -5  134.24   32.49
 -21  -3   5  100.13   34.90
 -21  -3   5   92.36    8.10
 -21  -3   5   70.41   10.82
  21   3  -5   80.50   31.03
  21   3  -5   91.42    9.67
 -21   3   5   96.38   32.07
  21   3  -5   80.73    8.24
 -19  -3   5  163.60   38.70
  19  -3  -5  159.35   11.10
 -19  -3   5  165.09   11.31
  19  -3  -5  124.93   29.37
 -19   3   5  153.86    8.88
  19   3  -5  170.97   11.95
 -19   3   5  159.35   32.92
  19   3  -5  149.74   12.47
  19   3  -5  153.68   34.49
 -17  -3   5  197.88   13.40
  17  -3  -5  203.32   34.76
 -17  -3   5  203.36   40.83
  17  -3  -5  214.57   13.48
  17   3  -5  224.52   39.80
  17   3  -5  216.43   13.96
  17   3  -5  216.80   14.96
 -17   3   5  243.00   12.66
 -17   3   5  275.57   43.36
  15  -3  -5  416.91   21.58
  15  -3  -5  384.24   40.81
 -15  -3   5  437.88   50.59
 -15  -3   5  386.36   21.45
  15   3  -5  381.54   22.12
  15   3  -5  428.50   21.94
  15   3  -5  503.53   49.85
 -15   3   5  421.46   48.99
 -15   3   5  409.31   20.83
 -13  -3   5  600.83   57.31
  13  -3  -5  572.42   49.25
 -13  -3   5  571.60   27.69
  13  -3  -5  554.96   27.46
 -13   3   5  543.50   27.08
  13   3  -5  538.41   27.42
  13   3  -5  567.14   27.97
 -13   3   5  482.13   68.98
  13   3  -5  553.44   51.77
  11  -3  -5  660.22   30.83
 -11  -3   5  602.91   56.62
 -11  -3   5  637.75   30.57
  11  -3  -5  613.08   51.47
  11   3  -5  620.84   30.36
  11   3  -5  590.96   52.15
  11   3  -5  657.79   30.56
 -11   3   5  622.92   30.55
 -11   3   5  666.17   56.45
   9  -3  -5  685.45   55.45
  -9  -3   5  702.10   57.99
  -9  -3   5  712.88   33.88
   9  -3  -5  757.70   34.51
  -9   3   5  680.13   57.53
   9   3  -5  745.53   57.91
   9   3  -5  712.30   33.72
  -9   3   5  723.65   34.45
   9   3  -5  754.19   33.57
  -7  -3   5  761.37   35.42
   7  -3  -5  717.70   57.04
   7  -3  -5  780.70   36.63
  -7  -3   5  667.85   57.62
   7  -3  -5  793.92   36.06
   7   3  -5  757.45   34.43
   7   3  -5  811.11   58.34
  -7   3   5  793.37   60.45
  -7   3   5  779.08   36.30
   5  -3  -5  578.71   27.36
  -5  -3   5  527.93   25.77
   5  -3  -5  547.36   26.60
  -5  -3   5  570.84   48.11
   5  -3  -5  578.79   48.90
   5   3  -5  542.93   25.62
  -5   3   5  546.58   47.66
   5   3  -5  557.99   45.95
   5   3  -5  482.73   24.31
  -5   3   5  548.81   27.00
  -3  -3   5 1002.04   65.83
   3  -3  -5  891.40   64.91
   3  -3  -5  957.07   43.21
   3  -3  -5 1013.11   44.12
  -3   3   5  878.36   43.30
   3   3  -5  945.91   62.48
  -3   3   5  915.68   67.20
   1  -3  -5 1336.83   83.75
   1  -3  -5 1372.64   59.26
  -1  -3   5 1250.56   78.57
   1   3  -5 1352.94   77.43
  -1   3   5 1209.15   82.71
  -1   3   5 1306.05   58.69
   1  -3   5  451.99   21.70
  -1  -3  -5  447.03   24.08
  -1  -3  -5  457.25   43.60
  -1  -3  -5  447.09   23.00
   1  -3   5  481.65   40.01
  -1   3  -5  442.90   19.18
  -1   3  -5  468.80   21.30
   1   3   5  441.60   23.47
  -1   3  -5  457.26   19.39
   1   3   5  513.61   44.90
  -1   3  -5  417.28   36.06
   1   3   5  488.79   23.63
  -3  -3  -5  933.31   45.40
  -3  -3  -5  903.85   66.89
   3  -3   5 1054.23   63.41
   3   3   5  987.55   68.79
  -3   3  -5  951.53   58.89
   3   3   5  978.41   44.84
  -5  -3  -5 1328.09   88.53
  -5  -3  -5 1472.40   65.43
   5  -3   5 1434.00   81.11
   5   3   5 1429.64   64.14
  -5   3  -5 1427.63   77.97
   5   3   5 1525.84   91.93
   7  -3   5  667.20   48.14
  -7  -3  -5  723.34   36.53
  -7  -3  -5  714.36   34.27
  -7  -3  -5  736.67   58.45
   7  -3   5  745.26   32.49
   7   3   5  772.98   36.29
  -7   3  -5  752.57   46.76
  -7   3  -5  761.56   34.81
   7   3   5  690.44   35.23
   7   3   5  759.92   60.25
   9  -3   5  566.13   24.22
   9  -3   5  557.07   40.66
  -9  -3  -5  632.65   53.12
  -9  -3  -5  539.92   26.88
   9  -3   5  554.19   25.04
  -9  -3  -5  540.37   27.46
  -9  -3  -5  529.27   29.06
   9   3   5  563.51   29.29
  -9   3  -5  529.04   36.85
   9   3   5  546.52   28.33
   9   3   5  628.48   53.55
  -9   3  -5  562.65   27.75
 -11  -3  -5  741.26   33.53
  11  -3   5  716.59   31.47
 -11  -3  -5  650.23   35.52
 -11  -3  -5  760.74   60.52
  11  -3   5  716.59   31.77
 -11  -3  -5  743.44   33.90
  11  -3   5  734.76   46.24
 -11   3  -5  737.21   43.15
 -11   3  -5  695.55   34.40
  11   3   5  781.54   62.69
  11   3   5  711.63   36.46
  11   3   5  660.61   34.92
  13  -3   5  440.79   19.90
 -13  -3  -5  420.20   20.95
 -13  -3  -5  425.06   21.42
 -13  -3  -5  428.67   21.41
 -13  -3  -5  418.35   24.10
  13  -3   5  440.26   21.05
  13  -3   5  406.56   30.13
 -13   3  -5  426.17   28.68
 -13   3  -5  429.05   23.05
  13   3   5  432.68   23.80
  13   3   5  417.00   24.97
  13   3   5  496.65   52.99
 -15  -3  -5  353.10   18.94
  15  -3   5  416.68   25.90
 -15  -3  -5  377.61   19.31
 -15  -3  -5  396.62   45.23
  15  -3   5  396.07   20.13
 -15  -3  -5  416.91   22.97
  15  -3   5  400.88   18.30
 -15  -3  -5  408.68   19.64
  15   3   5  318.25   49.69
 -15   3  -5  387.68   21.72
  15   3   5  373.33   23.80
 -15   3  -5  376.54   23.96
  15   3   5  380.67   22.33
 -17  -3  -5  239.84   43.49
 -17  -3  -5  185.09   10.76
 -17  -3  -5  184.03   11.12
  17  -3   5  200.72   12.62
 -17  -3  -5  177.69   10.37
  17  -3   5  188.72   10.27
 -17   3  -5  236.39   14.45
  17   3   5  253.49   44.90
  17   3   5  193.71   15.67
 -19  -3  -5  191.64    9.93
  19  -3   5  199.86   10.74
 -19  -3  -5  194.02   10.18
 -19  -3  -5  257.83   43.62
 -19  -3  -5  200.02   11.47
  19  -3   5  189.02   13.14
  19   3   5  203.93   16.79
 -19   3  -5  199.22   14.23
  19   3   5  204.70   45.86
 -21  -3  -5   78.19   33.96
 -21  -3  -5  143.22    8.67
  21  -3   5  125.91   10.60
 -21  -3  -5   74.97   29.04
  21  -3   5  121.94    7.90
  21   3   5  109.91   12.54
 -21   3  -5  121.73   11.01
 -23  -3  -5   66.45    5.81
 -23  -3  -5   66.96   33.67
 -23  -3  -5   67.30   30.49
  23  -3   5   81.09    6.24
  23  -3   5   80.68    8.64
 -23   3  -5   72.51    8.47
  23   3   5   75.38   12.83
  25  -3   5   47.04    8.76
  25  -3   5   43.66    4.89
 -25  -3  -5   27.33   30.19
 -25   3  -5   42.97    7.94
  25   3   5   53.99   10.83
 -27  -3  -5  -36.58   38.91
  27  -3   5   27.65    7.02
  27   3   5   26.29    7.55
 -27   3  -5   41.20    8.12
  29  -3   5   13.48    5.43
 -29  -3  -5   17.43   46.06
  29   3   5   21.06    7.71
 -29   3  -5   18.33    5.45
 -31  -3  -5  -17.05   67.12
  31  -3   5    7.38    5.43
  31   3   5    5.16    5.52
 -31   3  -5    6.15    4.34
  32  -4  -5    9.04    3.69
  32  -4  -5    2.35    4.50
  32   4  -5    6.57    5.05
 -32   4   5  -27.91   71.11
  32   4  -5   -1.60    2.98
 -30  -4   5   -0.61    1.39
  30  -4  -5    3.54    3.24
  30  -4  -5    6.01    4.84
  30  -4  -5   61.14   42.58
  30   4  -5    4.43    4.40
 -30   4   5  -56.84   49.45
  30   4  -5   16.69    6.53
  28  -4  -5    4.66    3.20
  28  -4  -5    6.24    4.19
  28  -4  -5   29.08   36.59
  28   4  -5   16.02    5.19
 -28   4   5   46.92   44.55
  28   4  -5    8.07    4.93
 -26  -4   5   52.42   43.17
 -26  -4   5   14.30    5.14
  26  -4  -5   13.02    3.87
  26  -4  -5  -45.74   30.62
  26   4  -5    6.61    4.88
  26   4  -5   13.59   44.18
 -26   4   5  -56.92   36.41
  26   4  -5   13.71    4.86
 -24  -4   5    3.00   45.30
  24  -4  -5   19.55    4.72
  24  -4  -5    4.67   28.87
 -24  -4   5   21.34    6.27
  24   4  -5   24.39    6.86
  24   4  -5   22.47    3.49
  24   4  -5   31.01   36.78
  24   4  -5   16.58    5.27
 -24   4   5   35.37   35.62
 -22  -4   5   19.23   35.90
 -22  -4   5   20.73    5.78
  22  -4  -5   10.13    3.65
  22  -4  -5   34.72   25.67
  22   4  -5   15.60    4.95
  22   4  -5   14.86    3.00
  22   4  -5   13.00    4.89
 -22   4   5   65.45   29.97
  22   4  -5   32.30   30.91
 -20  -4   5   17.32    5.77
 -20  -4   5   21.22   30.02
  20  -4  -5    9.13   21.72
  20  -4  -5   10.71    3.52
  20   4  -5   11.34    4.18
 -20   4   5  -16.29   21.98
  20   4  -5    6.13    4.01
  20   4  -5   -7.93   23.36
  18  -4  -5   38.72    6.18
 -18  -4   5   45.78   28.82
  18  -4  -5    6.84   16.59
  18   4  -5   50.19    8.29
 -18   4   5   47.59    3.73
  18   4  -5    8.79   23.64
 -18   4   5   49.83   22.61
  18   4  -5   55.39    8.06
  16  -4  -5   50.78    7.15
 -16  -4   5   38.81   27.10
  16  -4  -5   44.46   22.80
 -16   4   5   43.84    4.56
 -16   4   5   81.46   27.92
  16   4  -5   72.89   23.70
  16   4  -5   55.38    7.59
  16   4  -5   72.80   10.00
 -14  -4   5   39.23   23.11
  14  -4  -5   35.70    6.00
  14  -4  -5   44.88   19.39
 -14  -4   5   48.06    5.34
 -14   4   5   49.68    4.92
 -14   4   5   15.75   18.01
  14   4  -5   48.05    6.85
  14   4  -5   41.11    6.95
  14   4  -5   55.10   22.72
 -12  -4   5   67.27    6.17
  12  -4  -5   54.07    5.94
  12  -4  -5   71.96   21.83
 -12  -4   5   50.32   22.44
  12   4  -5   52.21    6.94
  12   4  -5   47.02    6.78
  12   4  -5   46.19   21.17
 -12   4   5   51.26    5.33
 -12   4   5   50.14   22.76
  10  -4  -5   74.19   22.26
 -10  -4   5   61.62    6.08
 -10  -4   5   96.69   26.17
  10  -4  -5   60.49    6.26
  10   4  -5   51.07    5.62
  10   4  -5   76.47   22.04
 -10   4   5   43.21   19.23
 -10   4   5   76.29    6.59
  10   4  -5   63.68    6.14
   8  -4  -5   41.57    6.21
  -8  -4   5   47.45   20.62
   8  -4  -5   36.29   17.17
   8  -4  -5   48.69    5.50
  -8  -4   5   40.41    4.53
   8   4  -5   31.32   15.30
   8   4  -5   52.99    6.68
  -8   4   5   47.03    6.75
   8   4  -5   41.20    4.54
  -8   4   5   46.41   20.22
   6  -4  -5    7.00    2.91
  -6  -4   5   -4.02    9.00
   6  -4  -5    1.39    9.90
   6  -4  -5    7.96    2.84
  -6  -4   5    6.10    2.27
  -6   4   5   13.55   14.51
   6   4  -5   13.05    3.06
   6   4  -5   28.14   16.15
  -6   4   5   11.16    2.94
   6   4  -5   20.30    3.57
   4  -4  -5   24.54    5.05
  -4  -4   5   13.36   14.31
  -4  -4   5   23.03    4.12
   4  -4  -5   32.71   16.86
   4  -4  -5   17.84    4.12
   4   4  -5   13.94    3.28
   4   4  -5   17.90   12.86
  -4   4   5   23.17    4.80
  -4   4   5   16.89   13.02
   4   4  -5   16.64    2.88
  -2  -4   5   87.99    6.30
   2  -4  -5   81.17   22.82
   2  -4  -5   88.21    7.33
  -2  -4   5  113.50   25.05
   2  -4  -5   88.39    7.73
   2   4  -5   80.14   19.30
   2   4  -5   66.36    5.84
  -2   4   5   63.01    6.48
   2   4  -5   64.79    5.65
   2   4  -5   68.54    4.71
  -2   4   5   70.23   22.87
   0  -4  -5    3.87    2.34
   0  -4   5   -8.52    8.46
   0  -4  -5  -18.61   11.98
   0  -4   5    3.13    1.71
   0  -4  -5    5.28    2.92
   0   4  -5   15.94    3.19
   0   4   5   10.02    3.27
   0   4   5   25.05   15.28
   0   4   5   17.76    4.49
   0   4  -5    7.79    2.67
   0   4  -5    7.11    9.60
   2  -4   5   91.31   21.55
  -2  -4  -5   98.98    8.97
   2  -4   5   77.43    6.22
  -2  -4  -5   92.47    7.88
  -2  -4  -5   52.58   19.05
   2   4   5   92.11   25.35
  -2   4  -5  105.11    7.71
   2   4   5  101.08    8.48
  -2   4  -5  105.37    6.66
   2   4   5  113.25    8.86
  -2   4  -5  116.45   21.32
   4  -4   5   23.06    3.50
  -4  -4  -5   22.64    4.75
   4  -4   5   16.60   11.67
  -4  -4  -5   24.36   16.07
  -4  -4  -5   26.89    5.87
   4   4   5    8.86    3.53
  -4   4  -5   11.04    2.38
   4   4   5   10.28    3.36
  -4   4  -5    7.99    2.77
  -4   4  -5    8.48    8.44
   4   4   5    7.87   13.16
   6  -4   5   27.06   13.25
  -6  -4  -5   30.58    6.61
  -6  -4  -5   33.85    5.94
   6  -4   5   35.03    3.46
  -6  -4  -5   26.27   18.96
  -6   4  -5   45.66    5.15
   6   4   5   39.16   20.09
   6   4   5   38.06    6.48
  -6   4  -5   58.32   15.07
   6   4   5   48.06    7.38
   8  -4   5    2.04    9.05
  -8  -4  -5   -2.56   14.60
  -8  -4  -5    2.75    2.94
  -8  -4  -5    3.99    2.38
   8  -4   5    1.74    1.36
   8   4   5   -3.20   14.70
  -8   4  -5    0.06    1.54
   8   4   5    2.79    2.71
  -8   4  -5    4.98    7.90
   8   4   5    1.12    2.16
  10  -4   5    9.45    1.42
  10  -4   5   28.48   12.16
 -10  -4  -5   12.52    3.54
 -10  -4  -5   12.33    3.44
 -10  -4  -5   29.41   18.87
  10  -4   5   11.43    2.38
 -10  -4  -5   18.21    5.00
 -10   4  -5   -2.10    8.00
  10   4   5    4.35   18.82
 -10   4  -5   11.79    3.75
  10   4   5   14.49    4.40
  10   4   5   15.79    4.88
  12  -4   5    1.61    9.17
  12  -4   5    2.41    1.39
 -12  -4  -5    3.59    2.57
 -12  -4  -5    8.36    3.03
 -12  -4  -5   11.32    4.16
  12  -4   5    6.99    1.76
 -12  -4  -5   -2.68   17.35
 -12   4  -5    9.78    3.48
 -12   4  -5   12.20    7.83
  12   4   5    6.08    3.57
  12   4   5   10.84   18.50
  12   4   5   13.38    4.19
 -14  -4  -5    8.67    2.38
 -14  -4  -5    3.01    2.33
  14  -4   5    8.04    1.79
  14  -4   5    5.26    6.78
 -14  -4  -5    4.55    2.55
 -14  -4  -5   12.88   19.78
  14  -4   5    5.27    1.92
 -14   4  -5    5.44    3.22
 -14   4  -5    2.91    6.18
  14   4   5    4.40   21.17
  14   4   5    7.24    4.26
  16  -4   5    7.66    2.63
 -16  -4  -5    2.98   22.85
 -16  -4  -5   16.81    3.96
  16  -4   5   14.93    2.41
 -16  -4  -5   12.95    3.26
 -16  -4  -5   10.90    2.60
  16   4   5   19.73    5.88
 -16   4  -5   12.07    3.93
  16   4   5   -1.27   22.82
  18  -4   5   15.21    2.43
 -18  -4  -5    1.42   24.72
 -18  -4  -5   15.00    2.94
  18  -4   5   15.28    3.63
 -18  -4  -5   18.87    3.74
 -18  -4  -5   17.03    3.54
 -18   4  -5    6.51    3.38
  18   4   5    3.15    3.77
  20  -4   5   18.26    2.85
 -20  -4  -5   21.53    3.34
 -20  -4  -5   14.38    2.81
  20  -4   5   15.66    4.31
 -20  -4  -5   22.80    3.84
 -20  -4  -5    2.52   24.73
  20   4   5   16.42    6.42
 -20   4  -5   11.70    4.30
  22  -4   5   14.14    2.74
 -22  -4  -5   12.99    2.51
 -22  -4  -5   21.58   32.09
 -22  -4  -5   12.83    2.27
 -22  -4  -5   56.15   31.99
  22  -4   5   13.05    4.18
  22   4   5    7.17    5.40
 -22   4  -5    2.91    3.48
 -24  -4  -5  -24.08   33.35
  24  -4   5   11.52    3.69
  24  -4   5   12.73    2.69
  24   4   5   26.60    8.67
 -24   4  -5    9.08    4.49
 -26  -4  -5   24.77   41.08
  26  -4   5    3.75    3.30
  26  -4   5    6.41    3.84
  26   4   5    4.53    4.87
 -26   4  -5    8.69    4.06
 -28  -4  -5   -4.30   52.00
  28  -4   5    2.12    3.50
 -28   4  -5    4.47    4.22
  28   4   5    6.52    5.79
  30  -4   5    8.94    4.82
  30   4   5    4.19    5.79
 -30   4  -5    1.85    3.43
  32  -4   5    0.00    3.15
 -32   4  -5    3.05    3.84
  32   4   5    5.19    5.57
 -31  -5   5    1.77    2.51
  31  -5  -5   -1.77    3.30
  31  -5  -5   13.16    4.22
  31   5  -5    2.60    4.01
 -31   5   5  -46.46   55.09
  31   5  -5    6.09    5.74
  29  -5  -5  119.68   42.47
  29  -5  -5    7.91    4.89
  29  -5  -5   15.38    4.49
 -29  -5   5   10.02    5.30
 -29   5   5   49.51   49.33
  29   5  -5   18.55    7.30
  29   5  -5   14.78    5.27
 -27  -5   5   16.17    5.58
 -27  -5   5   21.22   61.81
  27  -5  -5   32.33    5.93
  27  -5  -5   29.97   35.06
  27   5  -5   27.63    7.12
  27   5  -5   19.80    7.13
 -27   5   5   11.17   42.04
 -25  -5   5  -63.10   46.61
 -25  -5   5   42.62    8.77
  25  -5  -5   31.29    5.92
  25  -5  -5  -49.60   30.13
  25   5  -5   43.46    8.50
  25   5  -5   40.06    9.32
 -25   5   5    4.92   35.23
  23  -5  -5   37.16   30.73
 -23  -5   5   17.20   40.58
 -23  -5   5   70.64   11.45
  23  -5  -5   65.88    7.00
 -23   5   5   82.18   37.12
  23   5  -5   27.03   37.06
  23   5  -5   62.06    9.63
  23   5  -5   57.21    4.53
  23   5  -5   79.98   12.40
  21  -5  -5   95.30    8.75
 -21  -5   5  109.29   14.54
  21  -5  -5  115.58   34.03
 -21   5   5  100.42   35.90
  21   5  -5   94.13    9.91
  21   5  -5  100.59   11.18
  21   5  -5   68.47   35.88
 -19  -5   5  132.53   13.39
 -19  -5   5   97.44   36.57
  19  -5  -5  122.32   10.02
  19  -5  -5  102.93   31.07
  19   5  -5  138.65   11.44
  19   5  -5  201.22   46.21
  19   5  -5  125.16   12.06
 -19   5   5  123.10   35.82
  17  -5  -5  119.36   30.85
  17  -5  -5  146.19   10.99
 -17  -5   5  162.69   41.24
  17   5  -5  150.91   12.58
  17   5  -5  178.15   38.56
 -17   5   5  147.78    7.89
 -17   5   5  131.95   34.21
  17   5  -5  131.46   11.31
  15  -5  -5  188.06   35.61
 -15  -5   5  283.19   50.37
  15  -5  -5  236.44   15.05
  15   5  -5  257.85   16.51
 -15   5   5  234.46   13.27
 -15   5   5  173.83   38.37
  15   5  -5  264.07   46.76
  15   5  -5  245.54   15.64
  13  -5  -5  509.92   49.45
  13  -5  -5  492.49   25.73
 -13  -5   5  443.65   50.96
  13   5  -5  528.55   55.29
  13   5  -5  486.34   25.95
 -13   5   5  474.80   53.08
  13   5  -5  504.28   26.49
 -13   5   5  481.60   24.53
  11  -5  -5  550.71   28.09
 -11  -5   5  577.16   57.81
  11  -5  -5  583.52   53.35
  11   5  -5  519.58   51.73
  11   5  -5  550.60   27.93
 -11   5   5  547.18   27.40
  11   5  -5  528.37   27.82
  -9  -5   5  765.98   66.13
   9  -5  -5  837.91   65.58
   9  -5  -5  726.12   37.73
  -9  -5   5  748.97   37.12
   9  -5  -5  799.30   39.07
   9   5  -5  831.54   65.29
  -9   5   5  819.35   37.96
   9   5  -5  840.40   37.97
  -9   5   5  946.15   70.83
   9   5  -5  749.46   37.11
  -7  -5   5  805.87   64.51
  -7  -5   5  754.82   36.42
   7  -5  -5  780.64   64.16
   7  -5  -5  855.98   38.28
   7  -5  -5  732.48   38.03
   7   5  -5  805.17   35.60
   7   5  -5  788.87   36.23
   7   5  -5  774.89   60.48
  -7   5   5  738.72   37.28
  -7   5   5  721.01   62.89
   7   5  -5  797.27   36.97
   5  -5  -5  992.10   73.83
  -5  -5   5  963.82   44.75
   5  -5  -5  962.79   46.93
  -5  -5   5 1071.65   73.58
   5  -5  -5 1041.44   46.71
  -5   5   5  997.94   46.46
   5   5  -5  956.61   43.98
   5   5  -5 1032.68   45.29
  -5   5   5  887.62   71.98
   5   5  -5  994.49   70.03
   3  -5  -5 1507.53   96.03
   3  -5  -5 1621.23   66.26
   3  -5  -5 1408.42   66.23
  -3  -5   5 1358.84   89.06
  -3  -5   5 1395.00   63.44
  -3   5   5 1436.52   95.58
   3   5  -5 1431.43   62.35
  -3   5   5 1425.52   65.58
   3   5  -5 1566.28   90.37
   1  -5  -5 1561.88  103.63
   1  -5  -5 1605.99   75.14
  -1  -5   5 1651.39   98.06
   1   5  -5 1694.12   96.59
   1   5  -5 1638.32   69.87
  -1   5   5 1725.17   74.74
  -1   5   5 1856.07  108.95
  -1  -5  -5 1425.75   64.05
  -1  -5  -5 1272.27   61.86
  -1  -5  -5 1426.77   93.13
   1  -5   5 1458.48   85.31
   1   5   5 1172.63   61.73
   1   5   5 1437.87   94.23
  -1   5  -5 1512.07   83.72
   1   5   5 1458.57   63.16
  -3  -5  -5  935.75   75.34
   3  -5   5 1097.47   68.37
  -3  -5  -5 1016.55   49.53
  -3  -5  -5 1032.47   47.89
   3  -5   5 1002.49   44.83
  -3   5  -5 1020.28   44.82
   3   5   5 1102.63   48.93
  -3   5  -5  976.38   64.25
   3   5   5  972.37   48.10
   3   5   5  984.73   77.99
   5  -5   5 1039.34   47.61
  -5  -5  -5 1088.23   50.96
  -5  -5  -5 1056.50   52.78
  -5  -5  -5 1107.74   80.94
   5  -5   5 1055.37   67.99
   5   5   5 1088.22   51.81
   5   5   5 1154.54   52.33
  -5   5  -5 1144.14   67.29
   5   5   5 1208.27   85.06
  -7  -5  -5 1012.61   47.04
  -7  -5  -5  967.01   48.95
   7  -5   5  975.15   62.49
   7  -5   5  993.27   43.37
  -7  -5  -5 1011.68   78.74
   7   5   5 1045.13   80.88
   7   5   5  978.93   48.31
   7   5   5  945.87   47.66
  -7   5  -5 1030.81   46.36
  -7   5  -5  997.59   59.91
  -9  -5  -5  809.34   38.78
  -9  -5  -5  773.93   40.65
  -9  -5  -5  811.83   38.78
   9  -5   5  796.25   34.87
   9  -5   5  776.06   52.57
  -9  -5  -5  747.11   68.72
   9   5   5  797.76   40.69
   9   5   5  713.82   66.52
  -9   5  -5  833.70   38.52
   9   5   5  727.21   40.84
  -9   5  -5  808.50   49.83
  11  -5   5  447.18   21.11
 -11  -5  -5  472.92   24.97
 -11  -5  -5  453.96   24.53
 -11  -5  -5  457.30   52.38
  11  -5   5  483.20   35.85
 -11   5  -5  453.60   24.85
  11   5   5  414.86   26.60
  11   5   5  446.38   55.62
 -11   5  -5  509.59   33.74
  13  -5   5  631.59   38.85
 -13  -5  -5  608.78   30.35
  13  -5   5  590.47   26.73
 -13  -5  -5  605.15   30.91
  13  -5   5  607.43   36.57
  13  -5   5  602.72   26.95
 -13  -5  -5  499.68   58.58
  13   5   5  573.01   33.69
 -13   5  -5  662.46   31.95
  13   5   5  576.45   65.57
 -15  -5  -5  223.72   14.47
 -15  -5  -5  189.89   13.16
 -15  -5  -5  224.53   11.82
  15  -5   5  215.48   10.90
  15  -5   5  211.85   11.73
 -15  -5  -5  277.39   48.41
  15   5   5  148.67   41.94
 -15   5  -5  228.11   15.44
  15   5   5  226.38   17.73
 -17  -5  -5  135.06    8.41
 -17  -5  -5  153.81   11.16
  17  -5   5  158.48    9.80
 -17  -5  -5  139.90   10.14
  17  -5   5  151.73    8.07
 -17  -5  -5  189.05   41.49
  17   5   5  147.36   14.60
 -17   5  -5  162.39   12.81
  19  -5   5  148.24    7.92
 -19  -5  -5  149.64    8.21
  19  -5   5  142.92   10.05
 -19  -5  -5  207.13   48.73
 -19  -5  -5  142.17   10.52
 -19  -5  -5  133.73    9.62
 -19   5  -5  149.28   12.61
  19   5   5  151.31   15.14
 -21  -5  -5   76.25    6.66
 -21  -5  -5  104.47   38.40
  21  -5   5   94.74    8.35
  21  -5   5   97.33    5.84
 -21  -5  -5   98.81    7.75
  21   5   5  119.47   17.19
 -21   5  -5  102.04   10.28
 -23  -5  -5   31.35   36.42
  23  -5   5   50.04    3.96
 -23  -5  -5  -38.34   30.70
 -23  -5  -5   53.61    4.89
  23  -5   5   53.58    7.92
  23   5   5   45.62   10.07
 -23   5  -5   37.96    8.28
 -25  -5  -5   -9.62   37.95
  25  -5   5   45.00    7.52
  25  -5   5   33.02    3.42
  25   5   5   21.71    7.54
 -25   5  -5   39.41    8.55
 -27  -5  -5  -16.46   47.54
  27  -5   5   27.47    6.73
  27   5   5   27.19    8.45
 -27   5  -5   29.61    7.45
  29  -5   5    9.15    4.93
 -29   5  -5   21.54    6.85
  29   5   5    9.18    7.13
  31  -5   5    7.13    5.13
  31   5   5    9.27    7.01
 -31   5  -5    5.98    4.82
  30  -6  -5    5.64    4.36
  30  -6  -5    7.97    3.51
 -30  -6   5    5.53    4.84
  30   6  -5    7.02    6.36
  30   6  -5    3.11    3.97
 -28  -6   5   15.33    6.15
  28  -6  -5    9.82   38.93
  28  -6  -5    8.38    4.08
 -28   6   5    4.39   47.22
  28   6  -5    6.00    5.11
  28   6  -5    3.22    4.76
  26  -6  -5   40.69   36.10
 -26  -6   5  -33.83   64.89
 -26  -6   5   10.19    5.88
  26  -6  -5   16.22    4.62
 -26   6   5   -3.09   39.97
  26   6  -5   12.15    5.80
  26   6  -5    1.75    4.02
 -24  -6   5   38.16    9.08
 -24  -6   5  -49.63   52.59
  24  -6  -5   21.22    5.24
  24  -6  -5   10.72   32.31
 -24   6   5   -3.77   36.08
  24   6  -5   20.96    6.42
  24   6  -5   21.85    7.58
 -22  -6   5   57.21   47.21
  22  -6  -5   32.34    6.13
  22  -6  -5   15.00   29.11
 -22  -6   5   24.24    7.18
  22   6  -5   27.82    2.41
  22   6  -5   23.02    7.25
 -22   6   5   38.39   33.03
  22   6  -5   25.76    2.25
  22   6  -5   22.97    6.53
  20  -6  -5   49.23   29.96
 -20  -6   5   24.25    7.13
 -20  -6   5   12.12   30.16
  20  -6  -5   29.64    5.87
  20   6  -5   25.97    6.70
  20   6  -5   26.35    2.72
  20   6  -5   14.81   33.42
  20   6  -5   24.91    6.97
 -20   6   5   34.16   31.20
  18  -6  -5   -8.02   22.01
 -18  -6   5   22.68    7.30
  18  -6  -5   20.18    4.76
 -18  -6   5   15.09   32.67
  18   6  -5   28.69    6.66
  18   6  -5   26.69    3.03
 -18   6   5  -25.23   21.77
  18   6  -5   31.32    7.26
  18   6  -5   19.40   29.83
  16  -6  -5   16.35    4.49
  16  -6  -5   31.82   20.30
 -16  -6   5   17.35   30.35
  16   6  -5   16.92    5.29
  16   6  -5   21.16    3.43
 -16   6   5   15.14   23.52
  16   6  -5   24.05   26.09
  16   6  -5   12.08    4.37
  14  -6  -5   -2.66   20.40
 -14  -6   5   48.02   29.38
  14  -6  -5   25.18    5.59
 -14   6   5   21.99    3.89
  14   6  -5   20.62    5.67
  14   6  -5   20.76   23.65
 -14   6   5   30.59   24.05
  14   6  -5   24.54    3.80
  14   6  -5   31.26    6.44
  12  -6  -5   30.16    6.04
 -12  -6   5   35.29   20.74
  12  -6  -5   44.21   22.70
  12   6  -5   24.83    3.97
  12   6  -5   31.79    6.40
  12   6  -5   30.47   22.14
  12   6  -5   26.78    6.02
 -12   6   5  -19.99   17.16
 -12   6   5   24.63    4.69
  10  -6  -5   -0.81   19.15
  10  -6  -5   20.13    5.20
 -10  -6   5   33.80   22.75
 -10   6   5   19.95    4.37
  10   6  -5   20.67    5.15
  10   6  -5   21.75    4.90
  10   6  -5   17.75    3.58
  10   6  -5    4.83   17.90
   8  -6  -5   44.03   21.38
  -8  -6   5   57.31   23.86
   8  -6  -5   45.45    7.47
   8   6  -5   55.23    5.15
  -8   6   5   64.53    6.59
   8   6  -5   62.52    6.64
   8   6  -5   94.96   27.15
   8   6  -5   52.17    5.96
  -8   6   5   49.15   22.10
   6  -6  -5    4.99    2.99
   6  -6  -5   20.87   18.99
  -6  -6   5   14.95   18.29
   6   6  -5    1.23    1.53
   6   6  -5   -3.72   14.77
   6   6  -5    0.76    1.96
  -6   6   5  -22.90   16.13
   6   6  -5    1.78    1.81
  -6   6   5   -1.70    1.70
  -4  -6   5   15.54    3.56
   4  -6  -5   16.77    4.56
   4  -6  -5   16.84    4.52
   4  -6  -5    9.96   17.48
  -4  -6   5   -4.53   15.82
  -4   6   5   24.99    5.52
   4   6  -5   29.06    4.44
   4   6  -5   29.72    5.42
   4   6  -5    4.28   15.43
  -4   6   5    9.97   14.86
   4   6  -5   25.81    4.33
   2  -6  -5  219.42   15.21
  -2  -6   5  184.52   11.83
   2  -6  -5  206.57   14.19
  -2  -6   5  212.61   35.46
   2  -6  -5  175.23   35.91
  -2   6   5  184.93   13.59
   2   6  -5  243.84   37.31
   2   6  -5  189.13   10.85
   2   6  -5  216.48   12.90
   2   6  -5  210.51   12.55
  -2   6   5  151.73   37.76
   0  -6  -5   49.09    7.52
   0  -6   5   47.69    4.56
   0  -6  -5   22.97   15.21
   0  -6   5   51.28   18.87
   0  -6  -5   44.26    7.78
   0   6   5   49.49    8.39
   0   6  -5   35.78    2.87
   0   6  -5   45.96    6.13
   0   6   5   40.45    6.83
   0   6   5   32.79   22.24
   0   6  -5   48.18   18.58
   0   6  -5   42.70    5.09
   2  -6   5    3.64   12.07
  -2  -6  -5   43.76   20.82
   2  -6   5   19.52    3.50
  -2  -6  -5   30.70    6.88
  -2  -6  -5   18.22    4.72
   2   6   5   23.95    5.72
  -2   6  -5   28.44    5.13
  -2   6  -5   33.50    4.90
   2   6   5   30.88    6.49
   2   6   5    5.74   19.16
  -2   6  -5   -9.56   10.53
  -4  -6  -5   15.55   15.67
   4  -6   5   30.62    4.31
  -4  -6  -5   22.87    5.71
  -4  -6  -5   21.54    5.30
   4  -6   5   18.40   14.31
  -4   6  -5   23.37    4.62
   4   6   5   30.34    6.28
  -4   6  -5   27.90   14.88
   4   6   5   56.82   26.13
   4   6   5   16.03    4.97
   6  -6   5   55.32   17.04
   6  -6   5   47.46    4.54
  -6  -6  -5   67.50    9.57
  -6  -6  -5   78.27   28.17
  -6   6  -5   44.30    6.98
  -6   6  -5   49.90   16.67
   6   6   5   56.94    9.27
   6   6   5   20.33   22.03
   8  -6   5   33.31   15.58
  -8  -6  -5   24.27    5.27
  -8  -6  -5   20.41   17.90
  -8  -6  -5   28.07    6.26
   8  -6   5   32.13    4.31
  -8   6  -5   27.84    5.47
  -8   6  -5   23.34   12.45
   8   6   5   60.55   27.93
   8   6   5   32.89    7.35
 -10  -6  -5   26.40   26.69
 -10  -6  -5   24.30    5.72
  10  -6   5   36.24   13.91
 -10  -6  -5   26.42    5.80
  10  -6   5   27.09    3.81
  10   6   5   32.94    7.80
 -10   6  -5   23.07    5.30
  10   6   5   27.94   27.83
 -12  -6  -5    0.23   23.99
 -12  -6  -5   25.95    5.98
  12  -6   5    3.02   13.08
  12  -6   5   18.66    2.95
  12  -6   5   -7.39   10.87
 -12  -6  -5    5.65    3.77
  12   6   5   12.21    5.13
  12   6   5    9.51   27.44
 -12   6  -5    9.96    3.65
  14  -6   5   16.38    2.50
  14  -6   5   13.42    6.32
  14  -6   5   18.80    2.07
  14  -6   5   20.67    3.03
 -14  -6  -5   16.62    4.96
  14  -6   5   10.10    6.69
 -14  -6  -5   32.86   28.25
  14   6   5   21.70    6.81
 -14   6  -5   15.70    4.75
  14   6   5    2.66   28.77
 -16  -6  -5   17.16    2.77
 -16  -6  -5   40.35   31.68
  16  -6   5   18.14    2.88
  16  -6   5   15.29    2.83
 -16  -6  -5   16.54    4.71
  16  -6   5   15.15    2.54
 -16   6  -5   12.20    4.76
  16   6   5   19.14    7.10
  18  -6   5   10.91    2.84
 -18  -6  -5    8.01    3.69
 -18  -6  -5   10.57    1.91
  18  -6   5   11.65    2.23
 -18  -6  -5    9.75    3.39
 -18  -6  -5   57.80   35.93
 -18   6  -5    4.61    3.81
  18   6   5   -6.39   37.67
  18   6   5   15.47    6.41
 -20  -6  -5    9.00   35.82
 -20  -6  -5   14.36    4.34
 -20  -6  -5    2.44   30.52
 -20  -6  -5   15.27    4.02
  20  -6   5    7.24    2.67
  20  -6   5   13.07    2.33
  20   6   5   16.70    6.59
 -20   6  -5   15.07    5.14
 -22  -6  -5   12.94   40.01
 -22  -6  -5    4.62    2.75
  22  -6   5   13.71    3.67
  22  -6   5    7.92    1.82
 -22   6  -5   17.04    5.43
  22   6   5   10.37    5.65
 -24  -6  -5    4.44    2.56
 -24  -6  -5    4.31   43.81
 -24  -6  -5    0.31    1.17
  24  -6   5    4.47    2.94
  24  -6   5   10.90    2.46
  24   6   5    4.42    5.04
 -24   6  -5    8.94    4.90
 -26  -6  -5    0.44    0.91
  26  -6   5    3.32    2.53
 -26  -6  -5  -86.00   56.76
 -26   6  -5    0.95    3.52
  26   6   5    2.16    4.39
  28  -6   5    3.98    3.56
  28   6   5   -3.78    3.89
 -28   6  -5    3.59    4.46
  30  -6   5    1.56    3.40
 -30   6  -5    7.92    5.20
  30   6   5    1.34    4.71
  29  -7  -5   15.37    4.37
 -29  -7   5    5.33    5.44
  29   7  -5    7.54    6.17
  29   7  -5    7.32    5.93
  27  -7  -5   43.20   43.63
 -27  -7   5    7.97    5.65
  27  -7  -5   19.25    5.23
  27   7  -5    5.81    5.26
  27   7  -5   10.02    6.27
 -27   7   5   33.04   49.58
 -25  -7   5   15.73    6.48
 -25  -7   5  -90.73   67.41
  25  -7  -5   31.59   40.41
  25  -7  -5   35.35    6.47
  25   7  -5   32.12    8.71
  25   7  -5   29.07    7.89
 -25   7   5    3.53   45.50
 -23  -7   5   95.18   60.88
 -23  -7   5   66.16   72.40
 -23  -7   5   52.96   10.71
  23  -7  -5   76.64   37.96
  23  -7  -5   43.01    7.24
  23   7  -5   60.96   11.19
 -23   7   5   -7.88   38.24
  23   7  -5   46.88    9.51
  21  -7  -5   81.17    8.25
  21  -7  -5   47.38   33.33
 -21  -7   5  -12.47   44.06
 -21  -7   5   67.03   11.73
 -21   7   5   -6.51   32.95
  21   7  -5   69.51   12.22
  21   7  -5   76.79   11.83
  19  -7  -5   45.19   31.81
 -19  -7   5   -9.87   41.77
 -19  -7   5   95.53   14.20
  19  -7  -5   81.31    8.46
  19   7  -5   68.20   10.81
  19   7  -5   74.28    4.67
  19   7  -5   61.87   10.83
 -19   7   5   51.36   35.63
 -17  -7   5  117.45   16.60
 -17  -7   5  215.35   51.96
  17  -7  -5  102.26    9.61
  17  -7  -5   68.31   32.90
 -17   7   5   80.80   32.01
  17   7  -5   98.61   10.46
  17   7  -5  103.24   14.00
  17   7  -5   93.78   40.50
  17   7  -5  105.30    6.47
  15  -7  -5  128.48   32.98
  15  -7  -5  179.95   12.75
 -15  -7   5  209.02   46.76
 -15   7   5  181.16   40.48
  15   7  -5  131.80   12.62
  15   7  -5  132.68   12.33
  15   7  -5  150.13    8.87
  15   7  -5  136.63   36.64
  13  -7  -5  207.54   41.25
 -13  -7   5  221.38   51.02
  13  -7  -5  223.27   15.05
  13   7  -5  228.01   45.77
  13   7  -5  212.20   11.60
 -13   7   5  198.23   12.29
 -13   7   5  139.82   38.32
  13   7  -5  194.79   14.85
  13   7  -5  196.06   14.93
  11  -7  -5  218.40   15.27
 -11  -7   5  288.30   50.90
  11  -7  -5  216.90   41.13
  11   7  -5  234.37   12.69
  11   7  -5  217.13   15.36
  11   7  -5  197.87   14.99
 -11   7   5  229.17   13.93
 -11   7   5  167.44   39.41
  11   7  -5  215.78   44.09
   9  -7  -5  349.01   51.43
  -9  -7   5  259.24   46.03
   9  -7  -5  321.01   19.44
   9   7  -5  331.68   16.62
  -9   7   5  297.81   17.99
   9   7  -5  291.92   18.70
   9   7  -5  279.37   18.22
   9   7  -5  365.16   52.87
   7  -7  -5  433.79   23.97
  -7  -7   5  394.17   54.99
   7  -7  -5  367.02   48.75
   7   7  -5  453.68   47.53
   7   7  -5  388.08   22.03
   7   7  -5  401.46   20.69
   7   7  -5  437.91   23.41
  -7   7   5  396.35   22.72
  -7   7   5  349.63   53.24
   5  -7  -5  369.57   20.75
   5  -7  -5  385.90   49.20
  -5  -7   5  385.17   46.26
   5   7  -5  309.25   17.37
  -5   7   5  289.52   18.94
   5   7  -5  306.28   18.83
   5   7  -5  307.23   17.67
   5   7  -5  338.10   43.65
  -5   7   5  401.93   50.39
  -3  -7   5  406.80   46.20
   3  -7  -5  420.56   23.98
   3  -7  -5  327.85   53.46
   3   7  -5  418.73   21.46
  -3   7   5  350.88   55.05
  -3   7   5  405.25   23.57
   3   7  -5  413.27   45.15
   3   7  -5  407.41   20.52
   3   7  -5  415.62   22.55
   1  -7  -5  640.65   33.14
   1  -7  -5  693.24   65.32
  -1  -7   5  595.63   54.92
   1   7  -5  625.76   30.54
  -1   7   5  628.64   32.96
  -1   7   5  520.26   60.10
   1   7  -5  617.21   30.93
   1   7  -5  583.23   54.24
   1   7  -5  625.13   27.95
   1  -7   5  574.12   51.96
  -1  -7  -5  532.19   29.54
  -1  -7  -5  527.77   59.66
   1  -7   5  526.84   26.27
  -1   7  -5  525.40   49.03
   1   7   5  514.97   31.70
   1   7   5  523.72   29.73
   1   7   5  636.98   64.73
  -1   7  -5  509.61   26.82
  -1   7  -5  594.32   27.93
  -3  -7  -5  421.33   23.03
  -3  -7  -5  336.78   52.46
   3  -7   5  343.14   18.60
   3  -7   5  341.22   38.29
   3   7   5  320.79   53.78
  -3   7  -5  339.83   37.35
  -3   7  -5  380.02   20.61
   3   7   5  336.51   22.12
   5  -7   5  255.11   37.44
   5  -7   5  288.49   15.61
  -5  -7  -5  331.60   19.88
  -5  -7  -5  213.49   44.82
  -5   7  -5  268.83   33.43
  -5   7  -5  295.97   17.75
   5   7   5  322.19   54.46
   5   7   5  284.02   19.69
   7  -7   5  357.06   19.13
  -7  -7  -5  371.09   23.13
  -7  -7  -5  371.10   57.93
   7   7   5  361.14   59.48
   7   7   5  379.32   24.24
  -7   7  -5  442.34   22.81
   9  -7   5  291.18   41.63
   9  -7   5  324.64   15.98
   9  -7   5  317.10   34.13
  -9  -7  -5  251.44   50.07
  -9  -7  -5  292.16   19.61
  -9   7  -5  308.11   19.01
   9   7   5  289.47   55.05
   9   7   5  280.62   20.69
  11  -7   5  258.69   13.12
 -11  -7  -5  268.60   50.59
  11  -7   5  235.92   29.77
  11  -7   5  213.05   32.76
 -11  -7  -5  241.39   17.08
  11   7   5  320.29   59.38
 -11   7  -5  223.50   16.24
  11   7   5  230.67   18.47
  13  -7   5  228.48   26.32
 -13  -7  -5  272.14   54.94
  13  -7   5  204.92   11.25
 -13  -7  -5  199.21   15.30
  13  -7   5  173.67   23.59
  13   7   5  189.09   17.02
 -13   7  -5  217.82   15.57
  13   7   5  264.90   56.89
  15  -7   5  124.96    6.88
  15  -7   5  141.18    7.85
  15  -7   5  118.05    6.81
 -15  -7  -5  112.57   40.31
 -15  -7  -5  118.78   11.22
 -15   7  -5  115.58   11.36
  15   7   5  120.81   13.50
  17  -7   5  115.97    6.77
 -17  -7  -5  116.10   40.54
 -17  -7  -5  109.92   10.55
  17  -7   5   96.58    6.69
  17  -7   5  108.47    6.68
 -17   7  -5   88.00   10.31
  17   7   5  141.10   52.93
  17   7   5   92.05   14.24
  19  -7   5   78.15    5.87
 -19  -7  -5   -4.22   36.10
 -19  -7  -5  110.49   45.66
  19  -7   5   72.06    6.03
  19  -7   5   69.16    5.01
 -19  -7  -5   75.25   10.32
  19   7   5   77.32   14.18
 -19   7  -5   86.14   12.31
 -21  -7  -5   74.73    8.10
  21  -7   5   61.35    4.43
  21  -7   5   65.59    5.76
 -21  -7  -5   19.11   38.25
  21  -7   5   63.07    6.01
 -21  -7  -5   41.62   47.36
  21   7   5   58.40   11.98
 -21   7  -5   46.28    9.04
 -23  -7  -5  -30.97   44.59
 -23  -7  -5   28.25    5.43
  23  -7   5   38.95    6.17
  23   7   5   20.23    7.95
 -23   7  -5   40.41    8.35
 -25  -7  -5  -14.64   76.01
 -25  -7  -5    0.73    2.05
  25   7   5   32.21    9.91
 -25   7  -5   21.91    6.41
  27  -7   5   13.38    4.51
  27   7   5    5.17    6.18
 -27   7  -5   22.87    7.02
  29  -7   5    9.63    4.58
 -29   7  -5    5.55    4.66
  29   7   5    3.11    5.64
  28  -8  -5    2.73    3.34
 -28  -8   5   -0.06    4.11
  28   8  -5    3.27    4.87
  28   8  -5    2.01    4.10
 -26  -8   5   -3.58    2.99
  26  -8  -5   14.65   44.51
  26  -8  -5    5.22    3.86
 -26   8   5   23.44   53.63
  26   8  -5    3.12    4.56
  26   8  -5   -0.80    3.75
  24  -8  -5   25.93   41.79
 -24  -8   5    5.73    6.19
 -24  -8   5   40.57   60.43
  24  -8  -5   14.25    4.88
  24   8  -5   11.16    5.80
 -24   8   5   -5.18   47.27
  24   8  -5    1.40    4.34
  22  -8  -5   35.33   39.96
 -22  -8   5  -24.42   62.48
 -22  -8   5    8.55    5.39
 -22  -8   5  -43.34   73.09
  22  -8  -5    7.87    4.16
 -22   8   5  -23.82   41.59
  22   8  -5    8.57    5.07
  22   8  -5    8.90    6.32
  20  -8  -5   22.49    5.66
 -20  -8   5   70.27   58.04
 -20  -8   5  -11.14   66.50
 -20  -8   5   16.68    6.71
  20  -8  -5   11.07   32.50
  20   8  -5   20.13    6.22
 -20   8   5   13.37   40.20
  20   8  -5   12.21    5.82
  18  -8  -5   34.57   31.67
 -18  -8   5   27.69   43.80
  18  -8  -5   30.92    6.32
 -18  -8   5   19.27   58.54
 -18  -8   5    9.98    5.25
  18   8  -5   10.79    5.62
  18   8  -5   21.71    2.12
  18   8  -5   18.29    5.54
 -18   8   5  -16.65   33.07
  16  -8  -5   23.90    5.86
  16  -8  -5  -19.20   30.20
 -16  -8   5   29.71   38.62
 -16  -8   5   17.80    7.06
  16   8  -5   21.43    3.07
 -16   8   5  -12.07   32.89
  16   8  -5   22.74    6.51
  16   8  -5   22.80    6.24
  14  -8  -5   16.13   27.46
 -14  -8   5   63.17   38.11
  14  -8  -5   21.01    5.03
 -14  -8   5   16.34    6.25
  14   8  -5   13.70    5.07
 -14   8   5  -11.99   30.92
  14   8  -5   21.19    6.17
  14   8  -5   18.59    3.28
  12  -8  -5   38.27   29.86
 -12  -8   5   34.42   31.77
  12  -8  -5   21.26    5.55
  12   8  -5   31.40    6.76
 -12   8   5    0.42   27.43
  12   8  -5   36.75    5.08
  12   8  -5   30.09    6.88
 -10  -8   5   -1.23   20.10
  10  -8  -5   43.00    7.95
  10  -8  -5   20.43   25.66
  10   8  -5   32.28    7.13
  10   8  -5   41.31    5.53
 -10   8   5   41.90    6.49
  10   8  -5   12.11   20.09
  10   8  -5   27.71    6.12
 -10   8   5   39.03   31.04
  -8  -8   5   25.40   25.85
   8  -8  -5   16.72    4.68
   8  -8  -5   10.21   25.51
   8   8  -5   12.77    4.17
   8   8  -5   10.24   23.31
  -8   8   5   10.47    3.75
   8   8  -5   14.31    3.67
   8   8  -5   13.92    4.78
  -8   8   5   25.18   24.98
   6  -8  -5  -13.18   23.79
   6  -8  -5   14.52    4.67
  -6  -8   5  -12.71   16.13
  -6   8   5   28.88   26.02
   6   8  -5   13.12    4.63
  -6   8   5   10.52    3.96
   6   8  -5   23.92   22.75
   6   8  -5    6.72    3.18
   6   8  -5   14.37    3.64
   4  -8  -5   13.02    4.86
  -4  -8   5   19.65   20.27
   4  -8  -5  -15.66   22.66
   4   8  -5   19.44    4.93
   4   8  -5   18.33    3.88
  -4   8   5    8.28   25.99
   4   8  -5   -3.11   18.88
   4   8  -5   17.13    4.16
  -4   8   5   20.10    5.23
   2  -8  -5  -12.44   22.27
   2  -8  -5   15.66    5.02
  -2  -8   5  -24.23   17.95
   2   8  -5   30.97   20.86
  -2   8   5   16.92   19.79
   2   8  -5   23.65    4.74
   2   8  -5   25.18    3.94
   2   8  -5   19.23    4.88
   0  -8   5   29.56   19.61
   0  -8  -5   55.74   26.61
   0  -8  -5   34.00    7.32
   0   8  -5   24.80    5.07
   0   8  -5   30.93    3.07
   0   8   5    7.96   21.15
   0   8   5   23.20    6.21
  -2  -8  -5   14.65    5.28
  -2  -8  -5  -20.08   25.99
   2  -8   5  -29.60   15.45
   2   8   5   16.30   29.35
  -2   8  -5   15.06    4.19
   2   8   5   14.09    5.42
  -4  -8  -5   11.32    4.52
   4  -8   5   -4.47   23.58
  -4  -8  -5   19.28   22.07
   4   8   5   26.54   33.14
   4   8   5   22.57    6.66
  -4   8  -5   12.77    3.99
   6  -8   5   28.39   23.34
   6  -8   5   27.26    4.99
  -6  -8  -5   28.72    6.79
  -6  -8  -5   15.35   21.51
  -6   8  -5   11.82    4.17
   6   8   5   13.64   32.91
   6   8   5   26.96    7.18
  -8  -8  -5  -27.76   28.16
   8  -8   5    2.80    2.02
   8  -8   5   -3.58   22.95
  -8  -8  -5    5.32    3.80
   8   8   5    0.24    3.28
   8   8   5  -26.18   29.80
  -8   8  -5    5.79    3.43
  10  -8   5  -14.79   14.92
  10  -8   5    2.01    1.76
 -10  -8  -5   -2.17    1.81
 -10  -8  -5   -3.77   31.66
 -10  -8  -5    1.26    1.39
  10  -8   5   14.55   21.54
  10   8   5  -17.34   34.99
 -10   8  -5    3.00    3.19
  10   8   5    1.16    3.33
 -12  -8  -5    1.72    1.41
 -12  -8  -5   12.88   34.09
  12  -8   5   15.65   19.07
 -12  -8  -5    5.31    3.90
  12  -8   5    3.51    2.05
  12  -8   5   -5.16   16.40
  12   8   5   22.06   41.34
  12   8   5    2.74    3.57
 -12   8  -5    2.62    3.16
 -14  -8  -5   -0.50    0.48
  14  -8   5    9.37   12.60
  14  -8   5    0.35   13.06
 -14  -8  -5   69.05   38.43
  14  -8   5    1.08    1.66
 -14  -8  -5   -0.33    2.73
  14   8   5    4.27    4.47
 -14   8  -5    1.25    3.11
 -16  -8  -5  -37.65   38.54
  16  -8   5    3.23    1.31
  16  -8   5    2.37    1.32
 -16  -8  -5    0.06    0.40
 -16  -8  -5    1.58    3.47
  16  -8   5    3.07    1.95
 -16  -8  -5   -0.05    0.34
  16   8   5    2.84    3.82
 -16   8  -5    3.92    3.46
  16   8   5    9.73   52.56
  18  -8   5    5.29    1.87
 -18  -8  -5  -22.71   39.60
  18  -8   5    3.16    1.80
 -18  -8  -5    5.64    4.04
 -18  -8  -5   36.33   47.15
  18  -8   5    2.88    1.58
 -18   8  -5    4.96    4.07
  18   8   5    5.54    5.17
  20  -8   5    9.20    2.53
  20  -8   5   11.37    2.91
 -20  -8  -5    6.29    4.27
 -20  -8  -5  -41.03   49.31
  20  -8   5    7.35    2.46
 -20  -8  -5  -75.40   43.73
 -20   8  -5    5.06    4.21
  20   8   5    6.55    5.73
 -22  -8  -5 -138.15   58.77
 -22  -8  -5    2.29    3.39
 -22   8  -5    2.26    4.02
  22   8   5    2.79    5.16
  24  -8   5    3.76    2.54
 -24  -8  -5    1.48    3.05
 -24   8  -5    1.67    3.73
  24   8   5    0.50    4.52
 -26  -8  -5   -0.09    1.57
  26  -8   5    2.25    3.00
 -26   8  -5    1.46    3.83
  26   8   5    5.57    5.60
  25  -9  -5   10.66    4.83
 -25  -9   5   13.13    6.86
 -25   9   5   46.28   62.50
  25   9  -5    9.72    6.25
  25   9  -5    5.71    5.42
  23  -9  -5   22.25    5.78
 -23  -9   5    8.97   88.53
  23  -9  -5   80.45   50.04
 -23  -9   5   27.87    9.28
  23   9  -5   12.57    6.19
  23   9  -5   29.55    7.75
 -23   9   5 -112.35   53.72
 -21  -9   5   -3.28   70.98
 -21  -9   5   53.34   11.80
 -21  -9   5  -77.89   64.06
  21  -9  -5   16.63   43.35
  21   9  -5   36.24    9.67
 -21   9   5  -22.20   46.87
  21   9  -5   39.19    9.61
 -19  -9   5   36.07   77.69
 -19  -9   5   12.39   59.71
  19  -9  -5   49.14    8.36
 -19  -9   5   33.86    9.19
  19  -9  -5   68.75   41.08
  19   9  -5   39.14    8.72
 -19   9   5   28.37   47.53
  19   9  -5   37.08    8.43
  17  -9  -5   78.57   11.14
 -17  -9   5   68.20   12.78
  17  -9  -5   67.29   42.17
 -17  -9   5   84.56   43.82
 -17  -9   5  -44.30   64.76
 -17   9   5   47.20   42.12
  17   9  -5   65.34    4.15
  17   9  -5   74.16   12.52
  17   9  -5   63.67   11.16
 -15  -9   5  103.01   15.93
  15  -9  -5   94.56   10.66
 -15  -9   5  106.67   50.91
  15  -9  -5   80.78   43.29
 -15  -9   5  116.53   61.92
  15   9  -5  131.84   12.93
 -15   9   5   -7.58   39.20
  15   9  -5  109.96   11.87
  15   9  -5  121.28    7.17
 -13  -9   5   63.58   60.23
  13  -9  -5  148.32   12.73
 -13  -9   5  164.50   44.62
  13  -9  -5  110.99   40.02
 -13  -9   5  148.08   15.17
  13   9  -5  126.91   12.61
  13   9  -5  134.44    8.81
  13   9  -5  137.80   13.36
 -11  -9   5  219.12   64.63
  11  -9  -5  168.14   14.46
 -11  -9   5  136.46   46.69
  11  -9  -5  186.63   48.58
  11   9  -5  181.74   15.01
  11   9  -5  170.55   14.16
  11   9  -5  186.47   11.17
  -9  -9   5  255.00   69.23
  -9  -9   5  346.72   57.03
   9  -9  -5  222.19   17.73
   9  -9  -5  259.44   52.10
   9   9  -5  271.94   17.87
   9   9  -5  282.93   15.43
   9   9  -5  272.17   19.05
   7  -9  -5  274.79   53.76
   7  -9  -5  282.88   19.42
  -7  -9   5  219.90   66.11
  -7  -9   5  255.77   49.21
   7   9  -5  277.59   17.47
   7   9  -5  281.42   19.17
   7   9  -5  277.94   16.07
  -7   9   5  282.51   18.13
  -7   9   5  234.75   51.06
   5  -9  -5  190.58   49.80
  -5  -9   5  254.25   62.02
  -5  -9   5  299.78   52.36
   5  -9  -5  249.27   18.17
   5   9  -5  278.51   15.66
  -5   9   5  214.87   48.30
   5   9  -5  252.27   17.58
  -5   9   5  239.31   17.28
   5   9  -5  235.82   15.21
  -3  -9   5  271.94   64.35
   3  -9  -5  365.69   22.75
   3  -9  -5  353.98   60.37
   3   9  -5  324.02   17.88
  -3   9   5  299.03   58.92
   3   9  -5  333.64   19.13
   1  -9  -5  312.32   61.48
  -1  -9   5  374.41   66.69
  -1  -9   5  435.29   19.88
   1  -9  -5  430.95   26.34
   1   9  -5  414.75   20.67
   1   9  -5  441.36   23.60
  -1   9   5  496.43   74.44
  -1  -9  -5  389.45   65.15
   1  -9   5  254.50   57.98
  -1  -9  -5  330.30   22.78
   1  -9   5  371.01   46.99
   1   9   5  414.19   68.84
  -1   9  -5  369.97   21.02
   1   9   5  353.83   23.50
  -3  -9  -5  306.60   60.74
   3  -9   5  384.36   63.58
   3  -9   5  404.14   47.31
  -3  -9  -5  349.53   23.85
   3   9   5  368.82   24.42
   3   9   5  398.86   68.11
  -3   9  -5  384.76   22.11
   5  -9   5  250.78   41.75
  -5  -9  -5  342.85   22.93
  -5  -9  -5  344.36   66.05
   5  -9   5  349.84   58.02
   5   9   5  323.08   22.97
  -5   9  -5  367.62   21.28
   5   9   5  257.12   56.24
   7  -9   5  322.15   53.11
   7  -9   5  260.36   40.69
  -7  -9  -5  265.48   19.94
  -7  -9  -5  297.97   59.64
   7   9   5  280.08   63.19
  -7   9  -5  292.81   19.02
   7   9   5  286.66   21.20
  -9  -9  -5  224.74   17.78
   9  -9   5  253.45   37.48
   9  -9   5  255.92   45.90
  -9  -9  -5  277.70   59.37
   9   9   5  212.31   18.62
  -9   9  -5  263.44   17.75
   9   9   5  145.84   47.46
 -11  -9  -5  211.63   17.04
  11  -9   5  163.11   31.00
 -11  -9  -5  173.81   10.91
 -11  -9  -5  189.66   54.44
  11  -9   5  223.89   38.36
  11   9   5  239.61   67.70
 -11   9  -5  223.99   16.31
  11   9   5  220.14   18.53
  13  -9   5  142.67   27.01
 -13  -9  -5  101.31   50.56
 -13  -9  -5  133.89   13.04
  13  -9   5  185.24   30.40
 -13   9  -5  133.56   12.73
  13   9   5  130.81   14.48
 -15  -9  -5  112.40   52.45
 -15  -9  -5  121.49   12.36
  15   9   5  127.76   18.71
 -15   9  -5  130.37   12.90
 -17  -9  -5    6.29   52.11
 -17  -9  -5  -47.11   46.80
 -19  -9  -5   11.19   57.23
 -19  -9  -5   62.77   10.19
  19  -9   5   54.22    4.15
 -19  -9  -5    1.62   55.73
 -19   9  -5   53.34   10.31
  19   9   5   59.82   12.00
 -21  -9  -5   42.45    8.03
  21  -9   5   45.07    4.25
 -21  -9  -5   21.85   63.60
  21   9   5   49.11   11.80
 -21   9  -5   40.44    8.95
 -23  -9  -5   18.68    5.87
 -23   9  -5   33.98    8.63
  23   9   5   27.22    9.35
 -25  -9  -5   14.90    5.02
  25   9   5   10.79    7.71
 -25   9  -5   17.51    6.84
  24 -10  -5    3.86    4.04
 -24 -10   5    8.01    5.78
  24  10  -5    2.69    5.03
  24  10  -5    3.41    5.18
  22 -10  -5    5.16    4.10
 -22 -10   5   -3.70    3.26
 -22  10   5  -21.48   64.56
  22  10  -5    3.61    4.76
  22  10  -5   13.47    6.87
  20 -10  -5    9.83    4.15
 -20 -10   5 -121.99   94.23
 -20 -10   5    7.64    6.37
  20 -10  -5   71.72   55.05
  20  10  -5    5.37    5.00
 -20  10   5  -49.70   58.57
  20  10  -5    5.54    5.37
  18 -10  -5  -18.07   45.44
 -18 -10   5   -1.53   86.36
 -18 -10   5   10.71    5.91
  18 -10  -5   16.89    5.55
  18  10  -5    5.17    4.81
 -18  10   5  -26.47   51.30
  18  10  -5    5.35    4.99
  16 -10  -5   15.45    5.49
  16 -10  -5   69.62   46.44
 -16 -10   5   13.46    6.20
 -16 -10   5  -31.25   75.80
  16  10  -5    4.65    4.31
  16  10  -5    1.85    4.00
 -16  10   5  -21.37   48.01
  14 -10  -5   81.67   48.85
 -14 -10   5   57.62   54.78
  14 -10  -5   14.56    5.24
 -14 -10   5   19.88    7.55
  14  10  -5   15.35    2.89
  14  10  -5   16.80    6.02
  14  10  -5    2.51    4.20
 -14  10   5  -20.93   48.84
 -12 -10   5   12.83    6.39
 -12 -10   5   24.83   62.27
  12 -10  -5    9.62    5.07
  12 -10  -5   -7.58   37.80
 -12  10   5    5.74   46.59
  12  10  -5   19.40    3.57
  12  10  -5    9.72    3.96
  12  10  -5   10.87    5.43
  10 -10  -5   24.84    6.61
 -10 -10   5  -35.12   39.83
 -10 -10   5    2.55   53.46
  10 -10  -5   11.05   36.53
 -10 -10   5   28.77    8.11
 -10  10   5  -17.32   44.44
  10  10  -5   28.21    6.74
  10  10  -5   21.95    6.41
  -8 -10   5   20.73   39.52
   8 -10  -5    8.90   41.39
  -8 -10   5   23.94    7.62
  -8 -10   5   45.17   49.69
   8 -10  -5   21.79    6.08
   8  10  -5    7.83    3.89
   8  10  -5   24.08    6.55
   8  10  -5   11.31    3.34
   6 -10  -5  -34.84   35.38
   6 -10  -5    6.63    4.24
  -6 -10   5  -70.32   42.82
  -6 -10   5  -31.03   31.28
   6  10  -5    2.34    2.12
  -6  10   5  -47.68   36.25
   6  10  -5   10.40    3.52
   4 -10  -5   12.56    5.24
  -4 -10   5   19.86    3.82
  -4 -10   5   21.04   29.81
  -4 -10   5   -9.27   43.07
   4 -10  -5   72.37   40.91
  -4  10   5   -1.13   38.59
   4  10  -5   17.96    4.61
   4  10  -5   19.46    4.13
  -2 -10   5   19.63   28.71
  -2 -10   5   11.53    2.52
   2 -10  -5  -19.09   33.21
   2 -10  -5    9.62    4.73
  -2 -10   5   12.31   45.46
   2  10  -5   11.34    3.01
   2  10  -5   11.72    4.05
  -2  10   5   14.03   37.83
   0 -10  -5  -25.89   37.11
   0 -10  -5    7.30    4.84
   0 -10   5   18.74    2.80
   0 -10   5  -31.58   35.70
   0 -10   5    1.08   25.32
   0  10  -5   12.00    4.31
   0  10   5   24.57   40.72
  -2 -10  -5   24.81    6.61
   2 -10   5    5.07   25.65
   2 -10   5   17.58    2.08
   2 -10   5    1.28   35.48
  -2 -10  -5   25.44   29.14
  -2  10  -5   21.57    5.45
   2  10   5  -11.96   31.49
   2  10   5   28.54    7.79
   4 -10   5   -7.58   38.64
  -4 -10  -5   17.93    6.35
  -4 -10  -5   44.27   35.67
   4 -10   5   10.26   27.63
   4  10   5   17.08    6.16
   4  10   5    6.48   45.49
  -4  10  -5   14.78    4.66
   6 -10   5   34.73   27.25
  -6 -10  -5   -3.16   41.08
  -6 -10  -5   19.02    5.69
   6 -10   5   36.61   33.77
   6  10   5   19.66    6.46
   6  10   5   64.80   53.98
  -6  10  -5   23.79    6.35
   8 -10   5   11.97   25.09
  -8 -10  -5   33.08    8.12
   8 -10   5   43.76   34.57
  -8 -10  -5  -51.22   41.21
   8  10   5   12.41    5.71
  -8  10  -5   17.15    5.37
   8  10   5   54.71   46.14
  10 -10   5   -3.13   24.11
 -10 -10  -5   16.82    6.35
  10 -10   5   31.46   33.14
 -10 -10  -5  -40.69   44.18
  10  10   5   74.76   63.20
  10  10   5   19.59    7.32
 -10  10  -5   16.30    5.70
 -12 -10  -5   40.38   41.14
  12 -10   5   62.29   30.53
 -12 -10  -5   20.16    6.45
 -12  10  -5   17.12    5.74
  12  10   5   16.66    6.84
  14 -10   5   30.85   24.30
 -14 -10  -5  -90.15   53.39
 -14 -10  -5    7.41    5.04
 -14  10  -5    8.44    4.41
  14  10   5    4.06    4.80
 -16 -10  -5   29.47   57.09
 -16 -10  -5  -63.12   58.54
 -16 -10  -5    6.22    5.05
  16  10   5   10.60    5.42
 -16  10  -5   14.37    5.66
 -18 -10  -5  -80.79   64.93
 -18 -10  -5    5.29    5.08
  18 -10   5   12.23    4.63
 -18  10  -5    3.27    3.89
  18  10   5   14.96    6.86
 -20 -10  -5   76.38  101.53
 -20 -10  -5   -0.26    3.46
  20 -10   5   11.08    4.52
 -20  10  -5    3.00    4.36
  20  10   5    2.42    4.76
 -22 -10  -5    6.36    5.04
  22  10   5    1.34    4.63
 -22  10  -5    7.99    4.63
 -24 -10  -5    4.59    4.51
  24  10   5    5.02    6.26
 -24  10  -5    5.40    5.16
 -21 -11   5   22.35    9.32
  21 -11  -5   27.17    7.34
  21  11  -5   13.71    6.97
  21  11  -5   20.09    7.78
 -19 -11   5   28.30    9.20
 -19 -11   5 -107.14  110.64
 -19 -11   5  -23.98   94.91
  19 -11  -5   34.94    8.20
  19  11  -5   38.56    9.31
  19  11  -5   32.77    9.06
 -17 -11   5   35.06    9.89
 -17 -11   5    5.73  100.45
 -17 -11   5  -73.63   78.95
  17 -11  -5   37.28    8.20
  17  11  -5   28.90    7.69
 -17  11   5  -28.17   62.73
 -15 -11   5  -67.16   86.17
 -15 -11   5   35.16   69.98
  15 -11  -5  -31.07   56.76
  15 -11  -5   63.25   10.91
 -15 -11   5   68.38   13.75
  15  11  -5   53.27   10.40
  15  11  -5   53.43   11.67
 -15  11   5   28.89   62.65
 -13 -11   5   73.99   83.16
 -13 -11   5   60.96   12.84
 -13 -11   5  141.29   65.19
  13 -11  -5   76.36   60.43
  13 -11  -5   62.09   10.25
  13  11  -5   58.96    5.27
 -13  11   5  -70.16   49.35
  13  11  -5   58.62   10.43
 -11 -11   5   68.59   42.81
 -11 -11   5   96.42   16.42
  11 -11  -5   75.62   12.15
  11 -11  -5  113.56   60.87
 -11 -11   5   24.65   72.52
 -11  11   5  -79.98   48.71
  11  11  -5   94.86    7.32
   9 -11  -5  140.62   57.28
   9 -11  -5  130.80   12.93
  -9 -11   5   99.58   70.86
  -9 -11   5   72.87   51.18
  -9 -11   5  141.81   15.17
   9  11  -5  131.74    9.80
  -9  11   5   17.40   48.78
   9  11  -5  125.99   11.49
   7 -11  -5  126.78   13.12
  -7 -11   5  156.21   52.40
   7 -11  -5   63.10   49.07
  -7 -11   5  117.44   65.86
  -7 -11   5  125.35   18.14
   7  11  -5  134.27   10.90
   7  11  -5  127.12   10.10
  -7  11   5    5.69   55.97
  -5 -11   5  139.86    9.37
  -5 -11   5  144.64   15.52
   5 -11  -5   85.77   56.66
  -5 -11   5   73.81   45.46
  -5 -11   5   56.58   59.68
   5 -11  -5  125.10   13.09
  -5  11   5   20.39   47.61
   5  11  -5  138.76   10.90
  -3 -11   5  170.66   66.18
   3 -11  -5  165.45   15.66
   3 -11  -5  184.23   58.72
  -3 -11   5  174.15   10.79
  -3 -11   5  189.89   17.71
  -3 -11   5  225.09   54.27
   3  11  -5  184.50   11.78
   3  11  -5  196.49   13.81
  -1 -11   5  173.06   45.25
   1 -11  -5  151.17   14.78
  -1 -11   5  187.21   59.33
  -1 -11   5  159.60    9.32
   1 -11  -5  182.32   59.84
  -1  11   5    5.22   50.79
   1  11  -5  160.07   12.61
  -1 -11  -5  137.70   14.72
   1 -11   5  162.15    8.97
  -1 -11  -5  185.20   60.50
   1 -11   5  105.35   53.76
   1 -11   5  186.69   43.65
  -1  11  -5  174.65   13.50
  -3 -11  -5  168.77   61.56
   3 -11   5  187.77    9.08
   3 -11   5  122.56   52.02
  -3 -11  -5  190.05   16.73
  -3  11  -5  177.99   14.24
   3  11   5  156.00   15.82
   3  11   5  -11.64   57.21
   5 -11   5  210.41   59.41
  -5 -11  -5   87.32   58.66
  -5 -11  -5  164.30   15.87
   5  11   5   47.10   60.66
  -5  11  -5  160.72   13.72
   5  11   5  170.15   16.22
  -7 -11  -5  148.83   67.44
  -7 -11  -5  148.10   14.63
   7 -11   5  119.45   48.03
   7  11   5  -91.16   66.61
  -7  11  -5  130.02   12.70
   7  11   5  151.14   15.11
  -9 -11  -5   76.59   51.24
   9 -11   5   66.24   45.53
  -9 -11  -5  113.95   15.90
  -9  11  -5  102.01   11.38
   9  11   5  121.08   17.12
   9  11   5 -116.82   68.51
 -11 -11  -5   81.65   52.89
  11 -11   5   33.75   42.16
 -11 -11  -5   74.15   12.50
  11  11   5   92.71   15.95
 -11  11  -5  100.40   11.50
  13 -11   5   93.57   10.30
  13 -11   5   86.41   39.10
 -13 -11  -5   26.32   71.04
 -13 -11  -5  103.82   15.40
  13  11   5   66.57   13.01
 -13  11  -5   99.46   14.19
 -15 -11  -5   53.05   10.96
 -15 -11  -5   85.96   71.57
  15 -11   5   70.95   10.77
 -15 -11  -5   -3.21   59.08
  15  11   5   82.78   14.72
 -15  11  -5   58.43   10.83
  17 -11   5   32.31    7.15
 -17 -11  -5   39.34    8.67
 -17 -11  -5  -53.81   77.82
  17  11   5   23.37    7.92
 -17  11  -5   27.67    7.75
 -19 -11  -5   34.06    8.29
  19 -11   5   29.20    7.01
  19  11   5   28.46    9.85
 -19  11  -5   37.72    9.09
 -21 -11  -5   32.28    8.26
 -21  11  -5   25.76    7.87
  21  11   5   10.86    7.33
 -18 -12   5    3.41    5.65
  18 -12  -5    8.12    5.43
  18  12  -5    0.17    3.84
 -16 -12   5   14.78    8.62
  16 -12  -5    3.53    3.89
  16  12  -5    2.02    3.92
 -14 -12   5   37.98  108.69
 -14 -12   5    1.26    4.88
  14 -12  -5   -2.28    2.94
  14  12  -5    5.48    4.58
 -12 -12   5    2.59    5.04
 -12 -12   5  -94.38   91.68
  12 -12  -5   -1.36    2.88
  12  12  -5    2.41    3.51
 -12  12   5  111.34   88.67
 -10 -12   5    2.58    4.86
 -10 -12   5  -50.73   83.73
  10 -12  -5    6.14    5.15
  10 -12  -5   14.23   66.76
 -10  12   5   11.02   66.53
  10  12  -5    8.33    2.92
  10  12  -5    3.48    3.44
   8 -12  -5    2.51    4.29
   8 -12  -5    2.01   57.85
  -8 -12   5    4.67    5.13
  -8 -12   5   -8.64   79.63
   8  12  -5   13.32    3.47
   8  12  -5    8.28    3.59
  -6 -12   5   68.60   73.29
   6 -12  -5  -56.58   65.86
   6 -12  -5   11.59    5.66
  -6 -12   5    0.98    4.36
   6  12  -5    0.07    1.79
   6  12  -5    3.18    2.82
  -6  12   5  -45.66   70.09
  -4 -12   5   13.16   67.73
   4 -12  -5   -0.60    3.47
   4 -12  -5  -77.45   56.06
  -4 -12   5    3.93    5.08
   4  12  -5    3.27    2.75
  -4  12   5   -7.96   63.32
   4  12  -5   -0.39    0.90
  -2 -12   5    3.32    4.39
   2 -12  -5   68.33   59.23
  -2 -12   5    2.81   58.79
   2 -12  -5    4.59    4.31
  -2  12   5 -171.81   65.04
   2  12  -5    3.41    2.99
   0 -12  -5   31.68   61.68
   0 -12   5    4.50    5.05
   0 -12   5  -31.88   63.18
   0 -12  -5   -2.24    2.52
   0  12  -5    0.15    2.35
   0  12   5    3.40   71.40
   2 -12   5    1.16    4.25
  -2 -12  -5    0.64    4.08
   2 -12   5  -24.63   52.51
  -2 -12  -5  -31.09   60.05
  -2  12  -5   11.09    4.11
   2  12   5   15.50   72.74
   4 -12   5    2.45    4.48
  -4 -12  -5    6.18    5.17
  -4 -12  -5  -12.24   64.95
   4 -12   5   48.70   63.55
  -4  12  -5    7.12    4.17
   4  12   5    1.92    4.18
   4  12   5   32.83   79.38
   6 -12   5  -86.91   50.78
  -6 -12  -5   32.91   73.31
   6 -12   5   -2.19    2.99
  -6 -12  -5    7.41    5.13
   6  12   5  -96.11   80.75
  -6  12  -5   -0.97    2.79
   6  12   5    6.25    5.59
  -8 -12  -5   40.10   75.64
   8 -12   5    0.06    3.32
   8 -12   5   24.49   53.02
  -8 -12  -5    3.51    4.34
   8  12   5   -2.67    2.90
  -8  12  -5    9.79    4.76
  10 -12   5    6.62    5.03
 -10 -12  -5  -27.90   82.37
 -10 -12  -5    0.09    3.52
  10 -12   5    1.13   53.67
 -10  12  -5    3.91    3.62
  10  12   5    0.20    3.63
 -12 -12  -5    1.34    4.21
  12 -12   5  -40.82   48.56
 -12 -12  -5  -56.76   78.32
 -12 -12  -5  -23.20   83.97
  12 -12   5    3.06    4.43
 -12  12  -5    3.91    4.09
  12  12   5    8.26    6.03
 -14 -12  -5  147.73   96.47
 -14 -12  -5    1.67    4.26
  14 -12   5    8.27    5.39
 -14 -12  -5   -7.00   85.22
 -14  12  -5    4.82    4.96
  14  12   5   -1.67    3.53
  16 -12   5   -0.02    3.61
 -16 -12  -5   -0.10    3.68
  16  12   5    2.53    4.79
 -16  12  -5    9.97    5.08
  18 -12   5   -2.63    3.01
 -18 -12  -5   -1.12    3.83
  18  12   5   -1.50    3.94
 -18  12  -5    7.00    5.63
  15 -13  -5   12.79    6.37
 -15 -13   5   20.73    9.92
  15  13  -5   20.01    7.13
 -13 -13   5   20.90    8.61
  13 -13  -5   29.84    7.95
  13  13  -5   17.20    6.04
  11 -13  -5   33.83    8.76
 -11 -13   5   29.48    9.83
  11  13  -5   14.54    5.67
   9 -13  -5   48.16   10.31
  -9 -13   5   47.45   12.18
   7 -13  -5   53.99   10.65
  -7 -13   5   57.12   12.90
   7  13  -5   54.62    6.57
   5 -13  -5   48.53   10.60
  -5 -13   5   67.52   13.48
   5  13  -5   63.57    7.49
  -3 -13   5   93.73   16.23
   3 -13  -5   82.83   13.87
   3  13  -5   80.79    8.73
   1 -13  -5   53.98   11.12
  -1 -13   5   78.86   14.26
   1  13  -5   65.90    9.95
  -1  13   5  -96.80   90.71
  -1 -13  -5   75.23   13.82
   1 -13   5   68.47   12.77
   1  13   5  -18.24   98.19
  -1  13  -5   86.15    9.64
  -3 -13  -5   56.56   11.30
   3 -13   5   68.00   12.99
  -3  13  -5   68.07   10.40
   5 -13   5   46.99   10.84
  -5 -13  -5   57.53  156.74
  -5 -13  -5   58.56   11.67
   5  13   5   76.82   14.40
  -5  13  -5   51.07    9.20
  -7 -13  -5   63.30   12.65
   7 -13   5   57.66   11.36
   7  13   5   51.63   11.11
  -7  13  -5   50.98    9.43
   9 -13   5   50.90   10.67
  -9 -13  -5   29.36    8.53
   9  13   5   38.18    8.86
  -9  13  -5   39.18    8.44
  11 -13   5   52.01   10.50
 -11 -13  -5  -45.17  118.61
 -11 -13  -5   35.03    8.95
 -11  13  -5   41.05    8.95
  11  13   5   61.14   13.36
  13 -13   5   38.35    9.23
 -13 -13  -5   37.35   10.09
  13  13   5   34.89    9.79
 -13  13  -5   30.31    8.73
  -8 -14   5    9.77    7.29
   8 -14  -5    2.89    4.58
   8  14  -5   -0.18    1.55
   6 -14  -5   -0.18    4.22
  -6 -14   5    5.22    6.45
  -4 -14   5    3.78    5.07
   4 -14  -5   -1.10    3.66
   4  14  -5    4.15    3.44
   2 -14  -5   -0.28    4.13
  -2 -14   5    2.75    5.24
   2  14  -5    1.73    3.01
   0 -14  -5   -1.25    3.71
   0 -14   5    2.39    5.26
   0  14  -5    2.81    3.22
  -2 -14  -5    2.54    5.14
   2 -14   5    4.24    5.05
  -2  14  -5   -1.59    2.42
  -4 -14  -5    2.35    4.93
   4 -14   5   -5.28    2.85
  -4  14  -5    2.07    3.60
  -6 -14  -5    0.53    3.92
   6 -14   5    7.22    6.84
  -6  14  -5    0.59    3.41
  32   0  -6    6.24    5.58
  32   0  -6   -1.54    2.48
  30   0  -6   14.97    5.62
 -30   0   6  -15.99   68.89
  30   0  -6    7.91    4.15
  28   0  -6   16.25    4.86
  28   0  -6   26.91    7.19
 -28   0   6  -70.86   48.05
  28   0  -6  -46.04   42.97
  26   0  -6   23.43    6.40
 -26   0   6   43.95   48.69
  26   0  -6   55.60   33.00
  26   0  -6   35.55    6.75
 -24   0   6   62.53    8.17
 -24   0   6   38.33   36.74
  24   0  -6   44.32    8.33
  24   0  -6   64.21   36.20
  24   0  -6   58.13    8.19
 -22   0   6   43.62    6.28
 -22   0   6    6.02   29.91
  22   0  -6   29.43    6.45
  22   0  -6   34.91    6.23
  22   0  -6   35.05   25.73
  20   0  -6   70.48   28.16
 -20   0   6   65.63    6.75
  20   0  -6   76.76    8.26
  20   0  -6   71.72    7.26
 -18   0   6  258.78   15.77
 -18   0   6  299.50   50.39
  18   0  -6  195.93   37.59
  18   0  -6  275.40   16.00
  16   0  -6  180.00   11.96
 -16   0   6  183.14   12.04
  16   0  -6  160.95   33.34
 -16   0   6  166.64   39.40
  14   0  -6  131.29   28.98
  14   0  -6  108.12    8.41
 -14   0   6  106.86    8.57
 -14   0   6  115.95   31.12
 -12   0   6  193.35   37.11
  12   0  -6  227.70   13.62
  12   0  -6  244.83   38.58
 -12   0   6  233.52   14.03
 -10   0   6  298.12   16.45
  10   0  -6  276.43   33.07
  10   0  -6  257.69   15.43
 -10   0   6  404.23   44.80
  -8   0   6  671.59   32.31
   8   0  -6  678.19   53.45
   8   0  -6  662.03   31.66
  -8   0   6  706.86   59.48
   6   0  -6 1444.14   89.39
  -6   0   6 1546.22   96.17
  -4   0   6  814.46   37.92
   4   0  -6  820.47   37.18
  -4   0   6  837.67   63.98
   4   0  -6  791.06   58.47
   2   0  -6  641.69   30.25
   2   0  -6  653.88   30.15
   2   0  -6  644.77   50.41
  -2   0   6  651.60   30.96
  -2   0   6  651.47   53.31
   0   0   6 1364.35   87.41
   0   0  -6 1454.61   85.70
  -2   0  -6 2007.44  110.91
   2   0   6 2070.18  115.04
   4   0   6 1075.48   49.45
  -4   0  -6 1045.38   69.85
  -4   0  -6 1124.51   49.65
   4   0   6 1226.87   76.11
   6   0   6  573.64   27.74
  -6   0  -6  582.43   47.57
  -6   0  -6  548.85   27.60
   6   0   6  581.15   26.93
   6   0   6  547.78   47.49
  -6   0  -6  599.77   26.28
   8   0   6  327.30   17.24
   8   0   6  296.25   33.59
  -8   0  -6  286.08   16.69
   8   0   6  333.62   16.93
  -8   0  -6  324.75   15.31
  -8   0  -6  330.31   33.39
  10   0   6  410.00   21.60
  10   0   6  402.30   21.67
  10   0   6  460.21   41.68
 -10   0  -6  412.76   20.07
 -10   0  -6  434.89   21.63
 -10   0  -6  437.19   19.23
 -10   0  -6  437.71   22.14
 -10   0  -6  426.82   39.29
 -12   0  -6  628.17   30.27
 -12   0  -6  709.34   52.21
 -12   0  -6  672.70   31.31
 -12   0  -6  636.25   26.85
  12   0   6  627.65   31.20
  12   0   6  606.07   30.40
  12   0   6  660.47   52.76
 -12   0  -6  610.13   27.07
  14   0   6  326.81   38.75
 -14   0  -6  387.17   21.04
  14   0   6  396.10   21.87
 -14   0  -6  387.04   38.70
 -14   0  -6  398.07   20.44
  14   0   6  398.65   20.76
 -16   0  -6  412.34   21.62
  16   0   6  398.54   21.15
 -16   0  -6  366.60   20.31
  16   0   6  375.44   22.25
 -16   0  -6  415.74   40.30
 -18   0  -6   89.35   22.58
  18   0   6  128.49   11.30
  18   0   6  125.72   29.22
  18   0   6  119.29    9.61
 -18   0  -6  132.89   10.12
 -18   0  -6  128.79    9.38
 -20   0  -6  115.20    9.60
  20   0   6  105.01    9.22
 -20   0  -6  115.02   24.89
  20   0   6  120.71   11.33
  20   0   6  147.49   31.79
  22   0   6  118.06   11.82
 -22   0  -6   94.14   23.79
 -22   0  -6  112.00    9.61
 -22   0  -6  126.15   26.88
 -24   0  -6   28.90   21.60
 -24   0  -6   97.02   25.42
  24   0   6   79.81   12.30
 -24   0  -6   79.41    8.11
 -26   0  -6   55.47    8.03
  26   0   6   46.20   10.00
 -26   0  -6   49.27   22.67
 -28   0  -6   15.86    4.56
  28   0   6   24.46    7.44
 -28   0  -6    6.82   16.73
 -30   0  -6   12.39    3.79
  30   0   6   12.09    6.05
  32   0   6    9.18    6.28
  33  -1  -6    8.53    4.49
  33  -1  -6    1.72    4.14
  33   1  -6   -1.34    2.94
  33   1  -6   12.73    6.02
  31  -1  -6    2.62    3.02
  31  -1  -6    1.10    3.96
  31   1  -6    1.49    4.09
  31   1  -6    3.87    3.46
 -29  -1   6   65.66   67.09
  29  -1  -6   14.71    5.41
  29  -1  -6    6.53    3.42
  29  -1  -6    9.55   46.73
 -29   1   6  -61.15   58.66
  29   1  -6    1.93    3.60
  29   1  -6    1.70   51.22
  29   1  -6    5.55    3.73
 -27  -1   6   89.21   60.32
  27  -1  -6   12.98    4.88
  27  -1  -6   20.64    4.95
  27  -1  -6   33.10   35.50
  27   1  -6   20.51    5.69
 -27   1   6   37.74   50.69
  27   1  -6   23.71    6.98
  27   1  -6   36.87   44.17
 -25  -1   6   25.30    5.42
  25  -1  -6   16.17    5.35
 -25  -1   6   34.04   43.39
  25  -1  -6    2.18   27.62
  25  -1  -6   21.54    5.20
  25   1  -6   14.04    5.22
 -25   1   6   39.23   40.69
  25   1  -6   24.30    5.53
  25   1  -6   16.33   30.71
 -23  -1   6   14.51    4.04
  23  -1  -6   10.53   28.71
  23  -1  -6   20.64    4.85
 -23  -1   6   28.00    6.13
  23  -1  -6   13.02    4.74
 -23   1   6   17.48    3.94
  23   1  -6   10.41    4.46
  23   1  -6   27.45   27.63
  23   1  -6   14.93    4.57
 -23   1   6   15.38   31.34
 -21  -1   6   28.46   27.90
  21  -1  -6   12.59    4.00
  21  -1  -6   11.41   24.54
 -21  -1   6   18.70    4.56
 -21   1   6   30.29   27.73
  21   1  -6   14.71    4.91
  21   1  -6   19.50   24.24
  21   1  -6   16.70    4.43
 -21   1   6   11.16    3.15
  19  -1  -6   37.31    6.10
 -19  -1   6   50.31    7.21
  19  -1  -6   -1.52   19.41
 -19  -1   6   42.26   31.58
  19   1  -6   39.00    6.07
  19   1  -6   12.42   22.20
  19   1  -6   40.91    7.08
 -19   1   6   50.55    6.73
  17  -1  -6   31.28    5.62
 -17  -1   6   37.53    5.92
 -17  -1   6   20.40   24.71
  17  -1  -6   25.74   19.89
  17   1  -6   22.12   20.34
 -17   1   6   24.07   23.28
  17   1  -6   37.61    6.13
 -17   1   6   33.18    5.75
  17   1  -6   32.59    6.25
 -15  -1   6   14.02   22.10
  15  -1  -6    6.23    2.83
  15  -1  -6  -13.24   14.95
 -15  -1   6    9.10    3.20
 -15   1   6   31.70   21.30
  15   1  -6    8.65    3.25
 -15   1   6    7.44    3.03
  15   1  -6  -11.19   15.38
 -13  -1   6   16.56    3.87
  13  -1  -6   10.63    3.20
  13  -1  -6   -7.16   13.44
 -13  -1   6   19.49   19.33
 -13   1   6   20.70    4.34
  13   1  -6   13.45   16.02
  13   1  -6   15.38    3.68
 -13   1   6   14.11   18.51
  11  -1  -6   -0.11   12.62
 -11  -1   6    3.88    2.30
 -11  -1   6    1.16   11.88
  11  -1  -6    3.69    2.35
 -11   1   6   32.97   19.61
  11   1  -6   -4.16   12.70
  11   1  -6   13.86    3.46
 -11   1   6   12.08    3.36
  -9  -1   6   23.65   17.80
   9  -1  -6   22.58    4.11
   9  -1  -6   20.38   12.62
  -9  -1   6   33.25    5.29
   9   1  -6   21.03   14.37
   9   1  -6   14.24    3.35
  -9   1   6   21.44    4.51
  -9   1   6   29.84   18.75
   7  -1  -6   90.27    7.13
  -7  -1   6   91.27    7.27
   7  -1  -6   59.39   19.17
  -7  -1   6   70.06   21.87
   7   1  -6   86.81    6.83
  -7   1   6   86.44   24.84
  -7   1   6   92.22    7.58
   7   1  -6   72.21   21.20
   5  -1  -6    9.53   12.46
  -5  -1   6   21.00    3.99
  -5  -1   6   25.38   14.29
   5  -1  -6   19.47    3.78
  -5   1   6   20.11    4.14
   5   1  -6   21.66    3.87
   5   1  -6   28.59   13.50
  -5   1   6    0.30    9.69
   3  -1  -6   33.37    4.95
  -3  -1   6   34.87   16.14
   3  -1  -6   30.61    5.01
   3  -1  -6   20.65   12.54
  -3  -1   6   37.06    5.35
   3   1  -6   44.82    4.29
   3   1  -6    6.38   12.06
  -3   1   6   43.26   18.92
  -3   1   6   48.76    6.42
   1  -1  -6   67.43    5.75
   1  -1  -6   46.35   15.86
   1  -1  -6   62.18    5.90
  -1  -1   6   54.85   18.48
  -1  -1   6   65.56    5.75
  -1   1   6   92.96   23.91
   1   1  -6   93.95   21.46
   1   1  -6   65.75    5.13
   1   1  -6   65.20    5.29
  -1   1   6   58.74    5.76
  -1  -1  -6   43.73    4.38
  -1  -1  -6   34.29   14.01
  -1  -1  -6   44.10    4.80
   1  -1   6   49.67   16.14
   1  -1   6   37.92    4.13
  -1   1  -6   28.00    3.93
   1   1   6   30.46    5.02
   1   1   6   39.87   17.86
  -1   1  -6   27.46    4.16
  -1   1  -6   19.96   12.10
   3  -1   6   25.70    4.25
  -3  -1  -6   27.22    5.04
  -3  -1  -6   25.94   15.29
   3  -1   6   16.68   13.62
  -3  -1  -6   30.37    4.45
  -3   1  -6   30.06    3.23
   3   1   6   29.90    5.01
   3   1   6   37.87    5.23
   3   1   6   43.63   16.21
  -3   1  -6   37.05    3.68
  -3   1  -6   11.96   11.45
   5  -1   6   54.19    5.26
   5  -1   6   81.97   21.44
  -5  -1  -6   67.40    6.49
  -5  -1  -6   70.65   19.97
  -5  -1  -6   68.06    5.47
   5   1   6   64.69    6.07
   5   1   6   79.93   23.28
   5   1   6   66.70    5.82
  -5   1  -6   57.08    4.90
  -5   1  -6   65.30    4.68
  -5   1  -6   55.81   16.30
   7  -1   6    3.47    9.76
  -7  -1  -6   -0.45    1.39
   7  -1   6    1.25    1.20
   7  -1   6    4.65    1.91
  -7  -1  -6    6.53   12.90
  -7  -1  -6    4.08    1.82
  -7   1  -6    0.33    0.91
   7   1   6    0.29    1.44
   7   1   6   -0.06    1.37
  -7   1  -6    1.02    1.22
   7   1   6   -4.59   12.89
  -7   1  -6    5.54    8.89
   9  -1   6   21.57   11.98
  -9  -1  -6   -1.27   11.90
   9  -1   6   31.25    4.50
   9  -1   6   29.95    3.54
  -9  -1  -6   29.62    3.27
  -9  -1  -6   32.12    5.45
   9   1   6   31.85   16.14
  -9   1  -6   31.32   13.47
  -9   1  -6   24.83    2.34
  -9   1  -6   29.12    4.95
   9   1   6   35.03    5.43
   9   1   6   29.07    5.02
  -9   1  -6   31.69    3.33
 -11  -1  -6    6.63    2.59
  11  -1   6   11.64   12.14
 -11  -1  -6   -8.64   11.41
 -11  -1  -6    6.04    2.15
 -11  -1  -6    5.51    1.78
  11  -1   6    7.19    2.44
  11  -1   6    9.25    2.72
 -11   1  -6    8.33    2.35
 -11   1  -6    5.63    2.69
  11   1   6    2.57   13.85
  11   1   6   13.04    3.85
  11   1   6   10.45    3.01
 -11   1  -6   11.42   11.60
 -13  -1  -6  104.81    8.35
 -13  -1  -6  101.09    6.37
  13  -1   6  135.38   25.19
 -13  -1  -6  111.33   26.29
 -13  -1  -6  106.49    8.77
  13  -1   6  105.45    8.29
  13  -1   6  107.47    7.76
 -13  -1  -6  117.15    6.24
  13   1   6   96.60    8.37
  13   1   6  109.56    9.48
 -13   1  -6   89.07    6.88
 -13   1  -6  127.18   22.77
 -13   1  -6  113.14    9.02
 -15  -1  -6   95.74   24.35
  15  -1   6   74.26    7.32
 -15  -1  -6   70.76    6.81
  15  -1   6   80.85   21.52
 -15  -1  -6   76.62    7.18
  15  -1   6   72.48    6.33
 -15   1  -6   72.78   18.36
  15   1   6   74.78    7.35
  15   1   6   80.62    8.44
 -15   1  -6   73.19    7.41
 -15   1  -6   77.95    6.12
  17  -1   6    2.70    2.57
 -17  -1  -6    1.84    2.07
 -17  -1  -6   14.16   17.15
  17  -1   6   10.23   15.44
 -17  -1  -6    0.32    1.85
  17  -1   6    3.83    2.43
 -17   1  -6    7.30   12.40
  17   1   6    8.07    3.88
  17   1   6    7.78    3.48
 -17   1  -6    3.64    2.64
 -19  -1  -6   12.38   18.25
 -19  -1  -6   13.60    3.59
  19  -1   6   20.37    4.39
  19  -1   6   23.15   18.05
  19   1   6   12.52    5.12
 -19   1  -6   21.53   13.35
 -19   1  -6   13.88    4.03
  19   1   6    9.88    3.91
 -21  -1  -6   28.40   21.12
  21  -1   6   20.57    5.82
 -21  -1  -6   25.30    4.77
  21  -1   6   19.67    4.60
 -21   1  -6   22.56    4.90
 -21   1  -6   37.60   15.63
 -21   1  -6   34.01   14.07
  21   1   6   34.29    7.75
  23  -1   6   22.74    6.27
  23  -1   6   26.45    5.51
 -23  -1  -6   21.75    4.67
 -23  -1  -6   36.58   24.01
 -23  -1  -6   11.57   23.06
  23   1   6   20.42    5.96
 -23   1  -6   23.40    5.68
 -23   1  -6   21.39   14.01
 -23   1  -6    6.35   13.17
  25  -1   6    4.07    4.20
 -25  -1  -6  -13.13   27.25
 -25  -1  -6    9.95    3.26
  25   1   6    4.07    4.42
 -25   1  -6   11.96    4.31
 -27  -1  -6  -24.76   28.72
  27  -1   6    7.86    4.95
 -27  -1  -6   13.82    3.87
 -27   1  -6   16.07    4.96
  27   1   6   11.14    5.47
  29  -1   6    7.66    5.51
 -29  -1  -6  -27.51   31.40
 -29  -1  -6    2.78    2.09
  29   1   6   -0.13    3.65
 -29   1  -6    3.98    3.39
  31  -1   6    7.15    5.78
 -31   1  -6   -0.05    2.48
  31   1   6    2.99    4.61
  32  -2  -6    9.00    5.76
  32  -2  -6   11.38    4.07
  32   2  -6    4.28    4.72
  32   2  -6    4.54    4.22
  30  -2  -6   15.82    5.68
  30  -2  -6   15.71    4.62
 -30  -2   6    0.31    1.24
  30   2  -6   12.94    4.61
  30   2  -6    5.70    5.10
 -30   2   6   -3.98   63.35
  28  -2  -6   20.55    6.42
 -28  -2   6   41.79   66.73
  28  -2  -6   28.21    5.71
  28  -2  -6   15.04   40.01
  28   2  -6   24.39    6.24
  28   2  -6   24.93    6.82
 -28   2   6  102.81   54.97
  28   2  -6   -5.32   45.96
 -26  -2   6   -0.63    1.44
  26  -2  -6   33.34    7.62
  26  -2  -6   -3.33   35.52
  26   2  -6   32.35    7.87
 -26   2   6  -36.52   43.07
  26   2  -6   12.18   39.97
  24  -2  -6   53.11   32.68
  24  -2  -6   58.98    8.26
 -24  -2   6    2.30   38.31
 -24  -2   6   63.19    6.93
 -24  -2   6   60.60    9.31
  24   2  -6   75.77   11.38
  24   2  -6   50.00   35.15
 -24   2   6    0.62   39.03
  24   2  -6   67.25    9.59
 -22  -2   6  -21.74   30.38
  22  -2  -6   63.48    8.40
 -22  -2   6   45.39    6.87
  22  -2  -6   82.38   28.86
 -22   2   6   -3.16   33.44
  22   2  -6  102.53   36.28
  22   2  -6   54.95    7.91
  22   2  -6   61.36    9.96
  20  -2  -6  131.26   34.62
 -20  -2   6  165.18   42.53
 -20  -2   6  128.44    9.94
  20  -2  -6  123.70    9.75
  20   2  -6   97.24   33.65
  20   2  -6  110.27   10.61
 -20   2   6  131.19   36.48
  20   2  -6  115.53    9.81
 -20   2   6  122.82    8.92
  18  -2  -6  303.93   17.63
 -18  -2   6  346.30   55.86
 -18  -2   6  287.93   17.63
  18  -2  -6  285.28   45.77
  18   2  -6  307.53   18.76
  18   2  -6  291.39   17.65
 -18   2   6  302.54   17.16
 -18   2   6  319.59   50.98
  18   2  -6  357.94   52.29
 -16  -2   6  311.65   18.08
  16  -2  -6  288.52   43.55
  16  -2  -6  295.47   17.55
 -16  -2   6  359.66   52.96
  16   2  -6  364.25   45.47
 -16   2   6  294.55   17.45
  16   2  -6  326.69   18.10
  16   2  -6  312.84   18.45
  14  -2  -6  423.61   20.76
 -14  -2   6  373.91   20.48
  14  -2  -6  383.94   43.47
 -14  -2   6  261.69   47.41
 -14   2   6  375.95   46.52
  14   2  -6  448.19   47.57
 -14   2   6  354.12   20.01
  14   2  -6  368.85   20.29
  14   2  -6  341.16   19.75
  12  -2  -6  495.04   25.29
  12  -2  -6  454.61   47.50
 -12  -2   6  524.19   54.91
 -12  -2   6  455.78   25.16
 -12   2   6  489.83   52.10
 -12   2   6  500.07   25.59
  12   2  -6  499.61   25.07
  12   2  -6  525.47   48.63
  12   2  -6  535.44   25.29
  10  -2  -6  616.15   31.81
  10  -2  -6  584.80   53.59
 -10  -2   6  663.17   32.32
 -10  -2   6  665.69   60.70
  10   2  -6  707.32   31.98
  10   2  -6  681.66   57.20
 -10   2   6  679.77   32.75
 -10   2   6  797.26   64.31
  -8  -2   6 1106.45   51.34
  -8  -2   6 1224.68   82.86
   8  -2  -6 1135.75   76.85
  -8   2   6 1132.71   81.29
   8   2  -6 1241.65   78.88
  -8   2   6 1104.85   51.91
  -6  -2   6 1049.30   73.92
   6  -2  -6 1051.68   46.64
   6  -2  -6 1004.21   46.98
  -6  -2   6  990.26   46.30
   6  -2  -6 1047.62   72.56
  -6   2   6 1018.75   75.54
  -6   2   6  996.90   47.02
   6   2  -6 1094.26   71.76
  -4  -2   6  855.04   66.83
  -4  -2   6  882.97   42.36
   4  -2  -6  937.27   67.27
   4  -2  -6  946.71   43.42
  -4   2   6  993.70   71.34
   4   2  -6 1074.70   68.15
  -4   2   6  931.84   43.52
   2  -2  -6  845.02   38.16
   2  -2  -6  827.59   38.79
   2  -2  -6  818.88   62.62
  -2  -2   6  837.89   37.76
  -2  -2   6  716.72   59.78
  -2   2   6  799.77   38.65
   2   2  -6  824.45   58.50
  -2   2   6  861.12   65.76
   0  -2   6  798.82   61.59
   0  -2   6  900.87   40.62
   0  -2  -6  839.52   64.54
   0  -2  -6  831.27   41.74
   0   2   6  920.33   42.03
   0   2   6  982.27   69.61
   0   2  -6  930.05   61.64
   0   2  -6  948.71   39.08
   2  -2   6 1490.19   90.31
  -2  -2  -6 1520.60   67.28
  -2  -2  -6 1458.97   92.03
  -2   2  -6 1540.46   63.45
  -2   2  -6 1494.85   86.38
   2   2   6 1444.88   93.69
   4  -2   6 1556.92   92.94
  -4  -2  -6 1618.63   71.52
  -4  -2  -6 1603.64   97.30
   4   2   6 1659.55   99.21
   4   2   6 1597.03   70.62
  -4   2  -6 1545.27   89.23
  -6  -2  -6  799.74   62.81
  -6  -2  -6  860.53   38.23
  -6  -2  -6  836.18   40.46
   6  -2   6  873.37   59.65
   6  -2   6  826.89   37.61
   6   2   6  838.51   64.82
  -6   2  -6  807.44   35.55
  -6   2  -6  794.63   54.90
   6   2   6  841.61   39.62
  -6   2  -6  808.26   35.94
   6   2   6  878.68   39.47
  -6   2  -6  837.78   38.90
  -8  -2  -6  969.31   46.58
   8  -2   6  995.12   43.67
  -8  -2  -6  939.29   69.87
   8  -2   6 1033.30   42.09
   8  -2   6 1034.48   65.75
   8   2   6 1015.32   72.57
  -8   2  -6  936.98   41.62
  -8   2  -6  996.37   61.82
   8   2   6  988.78   45.90
   8   2   6  932.66   45.63
  -8   2  -6  983.41   41.28
 -10  -2  -6  616.70   56.03
  10  -2   6  689.89   51.72
  10  -2   6  718.13   33.13
 -10  -2  -6  738.03   36.25
 -10  -2  -6  707.45   33.14
 -10  -2  -6  693.38   34.15
  10  -2   6  697.66   32.28
  10   2   6  723.15   35.58
  10   2   6  786.15   62.14
 -10   2  -6  740.74   31.60
  10   2   6  751.94   36.20
 -10   2  -6  790.89   35.52
 -10   2  -6  759.98   50.13
 -12  -2  -6  596.85   29.75
  12  -2   6  440.92   41.78
  12  -2   6  558.18   26.57
 -12  -2  -6  576.68   26.36
 -12  -2  -6  647.99   54.94
  12  -2   6  591.86   26.76
 -12  -2  -6  554.55   26.95
 -12   2  -6  529.05   40.10
  12   2   6  545.38   53.12
  12   2   6  552.86   28.93
 -12   2  -6  566.49   28.72
  12   2   6  567.98   29.94
 -14  -2  -6  593.15   29.55
 -14  -2  -6  479.27   49.18
 -14  -2  -6  585.05   25.58
  14  -2   6  578.50   44.25
  14  -2   6  545.00   27.05
 -14  -2  -6  552.67   27.29
  14  -2   6  542.25   26.22
 -14  -2  -6  521.44   25.64
  14   2   6  574.49   30.43
 -14   2  -6  565.32   28.70
 -14   2  -6  549.77   39.91
  14   2   6  543.11   28.96
  14   2   6  536.60   53.74
 -16  -2  -6  355.84   16.96
 -16  -2  -6  356.09   45.62
  16  -2   6  354.53   33.40
 -16  -2  -6  364.68   16.93
  16  -2   6  370.82   18.78
  16  -2   6  378.58   20.23
 -16  -2  -6  354.78   21.35
 -16  -2  -6  378.78   19.71
  16   2   6  385.61   23.22
 -16   2  -6  343.15   20.71
 -16   2  -6  392.18   31.08
  16   2   6  459.09   51.68
  16   2   6  341.02   21.11
  18  -2   6   88.30   19.76
  18  -2   6   97.24    9.05
  18  -2   6  104.81    7.83
 -18  -2  -6  122.80   31.07
 -18  -2  -6  112.17    8.49
 -18   2  -6  110.52   17.00
 -18   2  -6  114.90    9.96
  18   2   6  113.93   11.46
 -20  -2  -6  116.27    8.75
 -20  -2  -6   48.18   27.47
  20  -2   6  106.56    8.13
  20  -2   6  111.68    9.85
 -20   2  -6   78.92   13.68
  20   2   6  116.06   11.86
  20   2   6   53.15   31.44
 -20   2  -6  107.63    9.88
 -20   2  -6  109.46   15.01
 -22  -2  -6  178.02   38.12
 -22  -2  -6  113.37    8.65
  22  -2   6  102.06    8.40
  22  -2   6  101.88   10.23
  22   2   6   92.71   13.56
 -22   2  -6  103.00   10.10
  24  -2   6   56.36    9.36
  24  -2   6   55.86    6.25
 -24  -2  -6   54.32    5.96
 -24  -2  -6  119.46   35.15
  24   2   6   59.75   11.77
 -24   2  -6   57.09    9.11
 -26  -2  -6  -21.07   32.59
  26  -2   6   38.80    8.47
 -26  -2  -6   39.30    5.96
 -26   2  -6   45.44    7.68
  26   2   6   31.74    7.98
  28  -2   6    7.33    5.03
 -28  -2  -6   -7.69   39.25
 -28   2  -6   19.45    5.93
  28   2   6   10.68    6.19
 -30  -2  -6   70.56   50.60
  30  -2   6    5.91    4.57
 -30   2  -6    5.78    3.68
  30   2   6   15.78    6.64
  32  -2   6   11.08    6.24
  32   2   6    4.57    5.41
 -32   2  -6   16.35    5.19
  31  -3  -6    5.43    4.86
  31  -3  -6    1.62    2.81
 -31  -3   6    0.36    1.92
  31   3  -6    6.02    3.97
  31   3  -6    3.42    4.49
  29  -3  -6   11.47    4.41
  29  -3  -6   -4.95   43.79
 -29  -3   6   61.80   75.91
  29  -3  -6    6.61    4.39
  29   3  -6    5.79    4.95
 -29   3   6   -6.09   55.25
  29   3  -6    7.02    4.45
  27  -3  -6  -48.14   36.59
  27  -3  -6    9.28    4.35
 -27  -3   6    8.85    4.95
  27  -3  -6   24.29    5.23
 -27  -3   6  103.82   54.20
 -27   3   6   -8.62   47.83
  27   3  -6   29.92   50.62
  27   3  -6   11.65    5.08
  27   3  -6   18.91    6.41
 -25  -3   6   16.63    5.51
 -25  -3   6 -100.41   41.53
  25  -3  -6   30.44    5.93
  25  -3  -6   38.13   36.58
 -25   3   6  -40.14   38.89
  25   3  -6   26.47    6.95
  25   3  -6   28.69    6.59
  25   3  -6   49.77   40.12
 -23  -3   6   46.65   39.55
  23  -3  -6   17.67    4.61
  23  -3  -6   21.65   30.59
 -23  -3   6   26.89    6.99
  23   3  -6    4.61   32.74
  23   3  -6   17.39    5.27
  23   3  -6   11.95    4.33
 -23   3   6    5.18   38.66
  21  -3  -6   23.89   24.96
  21  -3  -6   19.64    4.65
 -21  -3   6  -24.41   29.82
 -21   3   6   28.11   29.02
  21   3  -6   24.21    6.18
  21   3  -6   15.41   28.53
  21   3  -6   11.06    4.18
  19  -3  -6   89.22   31.89
  19  -3  -6   60.93    7.98
 -19  -3   6   49.40   31.44
  19   3  -6   64.76   29.60
  19   3  -6   54.94    8.32
  19   3  -6   42.45    7.37
 -19   3   6   46.98    5.08
 -19   3   6   93.61   35.04
 -17  -3   6   53.23   27.91
  17  -3  -6   96.90   28.62
  17  -3  -6   53.82    7.67
  17   3  -6   66.44    7.18
  17   3  -6  118.02   32.54
 -17   3   6   94.04   33.87
  17   3  -6   64.89    7.58
 -17   3   6   70.45    6.44
  15  -3  -6   41.79   22.76
  15  -3  -6   66.10    6.80
 -15  -3   6   98.43   32.20
  15   3  -6   76.44   28.32
  15   3  -6   65.62    6.93
 -15   3   6   78.11    6.89
  15   3  -6   64.16    7.04
 -13  -3   6  122.27    9.54
  13  -3  -6  105.70   28.31
 -13  -3   6  133.00   34.28
  13  -3  -6  125.25    9.73
  13   3  -6   85.72   28.69
 -13   3   6  128.12    9.70
  13   3  -6  144.80   10.14
 -13   3   6  111.71   29.80
  13   3  -6  137.89    9.88
 -11  -3   6   89.43    7.87
  11  -3  -6   91.99    8.05
  11  -3  -6   84.35   25.54
 -11  -3   6  137.24   33.53
  11   3  -6   93.74    7.70
  11   3  -6   96.41    7.64
 -11   3   6   94.68    8.14
 -11   3   6  124.64   31.82
  11   3  -6  122.88   29.14
   9  -3  -6  121.36   28.89
  -9  -3   6  116.16   30.64
   9  -3  -6  139.77    9.98
  -9  -3   6  122.98    9.32
   9   3  -6  133.93    9.36
   9   3  -6  120.32    8.52
  -9   3   6  146.03   32.19
  -9   3   6  136.04   10.07
   9   3  -6  131.90   27.42
   7  -3  -6   74.15    7.21
   7  -3  -6   71.09    6.82
  -7  -3   6   77.72    6.72
   7  -3  -6   94.13   25.65
  -7  -3   6   75.61   23.85
  -7   3   6   82.21    7.37
  -7   3   6  133.81   33.59
   7   3  -6   78.08    5.86
   7   3  -6   68.78    6.33
   7   3  -6   54.73   18.92
  -5  -3   6   18.67   13.94
   5  -3  -6   12.21   11.81
  -5  -3   6   18.60    3.93
   5  -3  -6   14.37    3.91
   5  -3  -6   14.04    3.69
   5   3  -6   14.64   14.50
  -5   3   6   25.67    4.83
   5   3  -6   24.73    3.43
  -5   3   6   14.61   15.96
   5   3  -6   23.58    4.12
  -3  -3   6    0.98    8.82
  -3  -3   6    8.49    2.60
   3  -3  -6   -1.07   13.04
   3  -3  -6    8.09    2.90
   3  -3  -6    2.71    2.16
   3   3  -6   12.57    2.22
   3   3  -6   -0.03    8.76
  -3   3   6   14.27    3.90
   3   3  -6   10.46    2.75
  -3   3   6   21.24   15.88
   1  -3  -6   17.40   15.98
  -1  -3   6    8.49   12.39
   1  -3  -6   14.43    3.88
   1  -3  -6   17.24    4.32
  -1  -3   6   15.97    3.37
   1   3  -6   17.00   10.73
   1   3  -6   32.34    4.29
  -1   3   6   34.60    5.96
  -1   3   6   20.97   14.51
  -1  -3  -6   23.50   17.65
   1  -3   6   17.24   14.46
  -1  -3  -6   29.04    5.83
   1  -3   6   23.92    3.91
  -1  -3  -6   19.27    4.16
  -1   3  -6   10.46    1.16
   1   3   6   10.11    3.24
  -1   3  -6   18.91   11.35
   1   3   6   -0.82   10.14
  -1   3  -6   13.68    2.78
  -1   3  -6   14.76    1.99
   3  -3   6    9.17    2.40
  -3  -3  -6    4.88    2.96
  -3  -3  -6    4.63    2.58
  -3  -3  -6   -0.60   13.28
   3  -3   6    5.71   11.00
   3   3   6   12.74    3.59
  -3   3  -6   15.34    3.49
  -3   3  -6   20.83    3.19
  -3   3  -6   12.86   11.17
   3   3   6   27.50    5.37
   3   3   6   19.89   16.26
   5  -3   6   28.17   13.81
   5  -3   6   29.03    4.17
  -5  -3  -6   21.35    4.42
  -5  -3  -6   24.60    5.77
  -5  -3  -6   23.05   16.63
  -5   3  -6   17.96    2.76
  -5   3  -6   22.89   13.27
   5   3   6   18.08    4.44
   5   3   6   16.18    4.35
  -5   3  -6   15.70    3.81
   5   3   6   14.77   16.41
  -7  -3  -6   80.64    8.20
  -7  -3  -6  110.38   27.49
   7  -3   6   70.40    5.78
  -7  -3  -6   73.60    6.72
   7  -3   6   85.79   21.12
  -7   3  -6   76.33    7.24
   7   3   6   62.24   22.20
   7   3   6   77.02    7.50
  -7   3  -6   63.80   16.52
  -7   3  -6   81.11    4.65
   7   3   6   91.65    8.30
  -9  -3  -6   20.05    4.00
   9  -3   6   19.84   12.82
  -9  -3  -6   25.36   16.54
   9  -3   6   21.28    3.61
   9  -3   6   17.12    1.63
  -9  -3  -6   29.11    6.37
  -9   3  -6   23.37    4.94
   9   3   6   10.04   16.87
  -9   3  -6   18.67   11.39
   9   3   6   23.69    5.26
   9   3   6   21.83    5.19
 -11  -3  -6    6.69    2.68
 -11  -3  -6    1.87    2.56
  11  -3   6   14.09   12.46
  11  -3   6    1.66    1.54
  11  -3   6    2.26    1.25
 -11  -3  -6    3.45    2.53
 -11  -3  -6  -12.12   14.77
  11   3   6   -1.06    1.99
 -11   3  -6   -0.22    1.74
  11   3   6    0.04    1.99
  11   3   6   10.51   17.89
 -11   3  -6   -6.90    8.67
  13  -3   6   88.83   19.83
 -13  -3  -6   76.24    8.31
 -13  -3  -6   74.02   27.39
 -13  -3  -6   75.73    6.69
  13  -3   6   75.83    5.86
  13  -3   6   87.81    6.13
 -13  -3  -6   76.93    6.71
  13   3   6   77.21    8.84
 -13   3  -6   78.59    7.90
 -13   3  -6   87.72   17.13
  13   3   6   84.81   26.93
  13   3   6  107.69   15.73
 -15  -3  -6   12.40   20.95
  15  -3   6   22.47    3.69
 -15  -3  -6   20.74    4.06
  15  -3   6   25.36    4.51
 -15  -3  -6   18.46    3.71
  15  -3   6   21.26   14.16
 -15  -3  -6   21.90    3.82
 -15   3  -6   15.32    4.34
 -15   3  -6   20.90   10.24
  15   3   6  -14.37   19.00
  15   3   6   17.17    5.76
 -17  -3  -6   -2.58   23.27
  17  -3   6    3.65    1.97
  17  -3   6  -16.55    9.38
  17  -3   6    1.27    2.01
 -17  -3  -6    2.46    2.04
 -17  -3  -6    3.08    1.83
 -17  -3  -6    0.32    1.46
  17   3   6    4.91    3.14
 -17   3  -6    5.89    3.27
 -17   3  -6    0.91    7.90
  19  -3   6    1.17    1.73
 -19  -3  -6   -9.79   24.51
 -19  -3  -6    0.72    1.24
 -19  -3  -6    2.32    1.22
  19  -3   6    2.74    2.42
 -19  -3  -6    2.16    2.01
 -19   3  -6    4.52    2.96
  19   3   6    0.64    3.19
  19   3   6    8.28   30.38
  21  -3   6   12.94    4.11
  21  -3   6   16.78    3.53
 -21  -3  -6   39.70   26.67
 -21  -3  -6   10.83    2.91
 -21   3  -6    6.04    3.77
  21   3   6    7.76    4.77
  23  -3   6    6.43    3.09
 -23  -3  -6   23.47   27.57
 -23  -3  -6   13.63    3.45
  23  -3   6   17.40    4.71
 -23  -3  -6   11.51   31.64
  23   3   6   11.86    6.31
 -23   3  -6   11.49    4.18
  25  -3   6    4.09    2.54
 -25  -3  -6  -56.34   33.62
  25  -3   6   12.23    4.58
 -25   3  -6    8.90    4.46
  25   3   6    1.24    3.78
 -27  -3  -6   -0.20    0.56
  27  -3   6    5.96    4.17
 -27  -3  -6  -99.10   41.75
  27   3   6    5.14    5.65
 -27   3  -6    1.05    3.08
  29  -3   6   -1.82    2.68
 -29  -3  -6    4.35   51.32
 -29  -3  -6   -0.14    0.66
 -29   3  -6    1.62    3.15
  29   3   6   -0.79    4.21
  31  -3   6    1.97    4.26
 -31   3  -6    3.59    3.93
  31   3   6   -0.50    4.70
  32  -4  -6    6.90    5.65
  32  -4  -6    8.48    4.43
  32   4  -6    1.58    4.30
  32   4  -6    3.43    4.68
  30  -4  -6   12.28    5.91
  30  -4  -6   14.00    4.40
  30   4  -6    3.44    5.04
  30   4  -6   13.42    5.18
  28  -4  -6   16.54    4.69
 -28  -4   6  -33.86   76.17
  28  -4  -6   -5.48   42.37
 -28  -4   6   13.25    5.39
  28   4  -6   11.82    4.87
 -28   4   6  -16.05   53.05
  28   4  -6   18.00    6.16
 -26  -4   6   27.84    7.41
 -26  -4   6  -50.19   60.43
  26  -4  -6   -1.10   37.67
  26  -4  -6   23.13    5.40
  26   4  -6  -36.13   42.53
 -26   4   6   35.24   45.11
  26   4  -6   17.36    5.97
  26   4  -6   21.82    5.93
 -24  -4   6   -7.48   48.43
  24  -4  -6   43.76    6.79
 -24  -4   6   40.91    8.53
  24  -4  -6   17.58   32.79
  24   4  -6   41.31    7.65
  24   4  -6   29.48   39.16
  24   4  -6   34.93    7.84
 -24   4   6    8.45   38.20
  22  -4  -6   44.64    7.17
  22  -4  -6   58.24   35.21
 -22  -4   6   57.75   10.66
 -22  -4   6   18.52   38.87
  22   4  -6  108.20   39.70
  22   4  -6   50.20    9.41
 -22   4   6   -8.38   33.04
  22   4  -6   43.15    8.12
  20  -4  -6   83.02    8.11
  20  -4  -6   71.39   29.27
 -20  -4   6  -32.82   31.44
  20   4  -6   73.36   10.65
  20   4  -6   78.56    8.37
  20   4  -6   61.26   32.49
 -20   4   6   45.98   33.05
 -18  -4   6  205.35   50.18
  18  -4  -6  134.87   33.74
  18  -4  -6  145.78   11.01
 -18   4   6  143.44    9.50
  18   4  -6  140.09   12.00
  18   4  -6  121.82   10.84
 -18   4   6  153.05   40.07
  18   4  -6   96.80   35.22
  16  -4  -6  188.15   12.75
 -16  -4   6  221.61   47.26
  16  -4  -6  164.22   34.45
 -16   4   6  176.39   39.76
  16   4  -6  165.77   12.45
  16   4  -6  210.79   42.32
  16   4  -6  181.47   13.35
 -16   4   6  175.07   11.64
 -14  -4   6  295.40   51.92
  14  -4  -6  259.93   41.51
  14  -4  -6  282.53   16.81
 -14   4   6  278.38   16.18
  14   4  -6  308.59   49.07
  14   4  -6  266.84   16.78
  14   4  -6  258.94   16.38
  12  -4  -6  430.95   47.44
 -12  -4   6  426.05   53.74
  12  -4  -6  441.23   23.76
 -12   4   6  414.26   50.22
 -12   4   6  440.60   23.51
  12   4  -6  432.01   23.22
  12   4  -6  432.68   23.29
  12   4  -6  568.61   52.45
 -10  -4   6  544.83   57.96
  10  -4  -6  565.84   28.16
  10  -4  -6  462.37   51.04
  10   4  -6  561.78   26.99
  10   4  -6  572.79   54.04
  10   4  -6  526.28   27.14
 -10   4   6  659.98   60.04
 -10   4   6  507.37   27.63
   8  -4  -6  785.50   39.86
   8  -4  -6  829.28   39.46
   8  -4  -6  832.90   67.17
  -8  -4   6  859.04   68.93
  -8  -4   6  824.08   38.77
   8   4  -6  843.45   38.59
   8   4  -6  768.86   37.36
   8   4  -6  816.77   65.60
  -8   4   6  829.24   39.71
  -8   4   6  987.57   73.84
  -6  -4   6  637.21   58.18
  -6  -4   6  745.22   34.31
   6  -4  -6  764.69   35.29
   6  -4  -6  744.18   36.00
   6  -4  -6  742.49   61.41
   6   4  -6  676.21   32.40
   6   4  -6  698.51   33.65
  -6   4   6  763.33   65.53
  -6   4   6  686.77   35.14
   6   4  -6  726.42   59.45
   4  -4  -6  758.30   37.97
   4  -4  -6  758.80   63.88
  -4  -4   6  812.63   63.89
   4  -4  -6  763.75   37.12
  -4  -4   6  726.47   35.79
   4   4  -6  859.30   61.16
   4   4  -6  736.85   33.95
  -4   4   6  837.89   67.76
   4   4  -6  793.99   35.72
  -4   4   6  779.16   37.68
   2  -4  -6 1128.91   52.86
  -2  -4   6 1109.65   50.12
   2  -4  -6 1049.22   79.44
   2  -4  -6 1117.22   51.59
  -2  -4   6 1183.37   78.56
   2   4  -6 1123.40   74.47
   2   4  -6 1147.67   49.79
  -2   4   6 1098.59   52.12
  -2   4   6 1152.76   83.05
   0  -4   6  919.87   40.32
   0  -4  -6  869.00   43.19
   0  -4  -6  952.11   72.20
   0  -4  -6  936.73   42.15
   0  -4   6  868.38   64.86
   0   4  -6  892.61   62.17
   0   4  -6  901.75   40.85
   0   4  -6  858.92   36.81
   0   4   6  820.40   68.53
   0   4  -6  859.77   36.88
   0   4  -6  892.87   39.62
   0   4   6  832.52   42.18
   2  -4   6  880.73   63.19
  -2  -4  -6  868.48   42.95
  -2  -4  -6  826.54   69.58
  -2  -4  -6  844.29   40.96
   2  -4   6  837.65   39.06
  -2   4  -6  830.54   38.39
   2   4   6  982.29   42.30
   2   4   6  817.39   41.63
   2   4   6  909.73   71.83
  -2   4  -6  882.22   60.18
   4  -4   6  974.83   66.46
  -4  -4  -6  885.47   46.77
  -4  -4  -6 1009.49   45.39
  -4  -4  -6  982.61   76.30
   4  -4   6  975.26   43.08
  -4   4  -6  941.93   62.74
  -4   4  -6 1031.68   42.34
   4   4   6  916.62   45.58
   4   4   6  953.17   46.20
   4   4   6  956.88   76.24
   6  -4   6  996.11   45.35
  -6  -4  -6 1180.65   82.81
  -6  -4  -6 1115.17   51.00
  -6  -4  -6 1013.42   47.65
   6  -4   6  892.77   65.31
   6   4   6  968.90   48.70
  -6   4  -6 1064.70   47.81
   6   4   6 1017.33   78.23
  -6   4  -6 1027.94   43.89
   6   4   6 1062.12   49.16
  -6   4  -6 1008.26   63.94
  -8  -4  -6  837.98   43.75
   8  -4   6  864.13   38.93
   8  -4   6  840.85   59.77
  -8  -4  -6  881.68   41.34
  -8  -4  -6  873.47   72.32
  -8   4  -6  889.11   41.72
  -8   4  -6  862.09   55.76
   8   4   6  843.57   42.72
   8   4   6  920.35   43.45
   8   4   6  924.98   74.48
 -10  -4  -6  717.46   63.44
  10  -4   6  652.47   48.10
 -10  -4  -6  627.19   30.87
 -10  -4  -6  580.11   31.15
  10  -4   6  612.67   28.51
 -10  -4  -6  614.95   33.55
 -10   4  -6  643.58   31.70
  10   4   6  683.71   64.08
  10   4   6  607.14   33.10
 -10   4  -6  592.33   42.53
 -12  -4  -6  296.70   49.27
  12  -4   6  323.27   16.07
 -12  -4  -6  320.66   18.47
  12  -4   6  302.53   14.11
  12  -4   6  312.03   30.87
 -12  -4  -6  325.55   18.10
 -12   4  -6  336.60   28.49
  12   4   6  406.93   50.91
 -12   4  -6  346.23   19.57
  12   4   6  283.20   20.20
  14  -4   6  336.65   30.70
  14  -4   6  366.68   17.55
  14  -4   6  376.09   18.09
 -14  -4  -6  344.35   19.67
 -14  -4  -6  391.06   50.26
 -14  -4  -6  379.79   20.03
 -14   4  -6  376.33   21.83
  14   4   6  373.30   23.76
  14   4   6  440.18   56.01
 -14   4  -6  339.67   27.63
  16  -4   6  255.34   19.48
  16  -4   6  264.66   13.71
 -16  -4  -6  217.53   14.58
  16  -4   6  272.62   14.31
 -16  -4  -6  254.42   14.78
 -16  -4  -6  257.23   47.82
 -16  -4  -6  276.18   14.81
  16   4   6  286.88   20.00
 -16   4  -6  284.55   17.84
 -16   4  -6  243.58   18.35
  18  -4   6  111.06    7.25
 -18  -4  -6  107.17    7.79
 -18  -4  -6  128.00   36.78
  18  -4   6  102.39    8.05
 -18  -4  -6   97.81    7.40
 -18  -4  -6  116.11    8.08
  18   4   6  104.52   11.84
  18   4   6  114.31   40.07
 -18   4  -6   95.89    9.90
 -20  -4  -6  122.24    7.59
  20  -4   6   94.50    8.41
 -20  -4  -6  105.60    7.68
 -20  -4  -6  123.02   36.96
  20  -4   6  102.03    7.26
  20   4   6   27.75   42.03
  20   4   6  106.32   15.29
 -20   4  -6  123.17   11.20
  22  -4   6   63.33    7.20
  22  -4   6   72.48    6.01
 -22  -4  -6   74.21    5.90
 -22  -4  -6   63.22   39.05
 -22   4  -6   84.48   11.97
  22   4   6   75.61   13.03
 -24  -4  -6   34.99   40.16
  24  -4   6   44.87    7.96
  24  -4   6   33.09    5.00
 -24   4  -6   27.60    6.60
  24   4   6   42.73   10.43
  26  -4   6   23.91    6.09
 -26  -4  -6   30.91   47.57
 -26   4  -6   23.46    6.07
  26   4   6   21.39    7.63
  28  -4   6   28.51    7.18
 -28  -4  -6  -33.46   53.54
 -28   4  -6   13.69    5.29
  28   4   6   26.34    8.79
  30  -4   6    6.89    5.05
  30   4   6    7.49    7.25
 -30   4  -6    7.50    4.51
  31  -5  -6    0.20    3.01
  31  -5  -6    0.25    3.69
 -31  -5   6    1.48    2.79
  31   5  -6    4.19    4.73
  31   5  -6    0.95    4.06
 -29  -5   6    2.66    4.20
  29  -5  -6    6.86    3.90
  29   5  -6    3.97    4.51
 -29   5   6  -64.70   60.78
  29   5  -6   -1.20    2.99
 -27  -5   6    1.26    3.53
  27  -5  -6    6.65    3.78
 -27  -5   6 -132.73   64.05
  27  -5  -6   26.87   45.06
 -27   5   6   18.02   53.32
  27   5  -6    3.89    4.09
  27   5  -6    2.46    3.69
 -25  -5   6   46.27   62.09
  25  -5  -6   18.46    4.86
  25  -5  -6   19.16   38.43
 -25  -5   6   21.46    6.88
  25   5  -6   -1.53   47.41
  25   5  -6   13.58    5.26
  25   5  -6   16.58    6.37
 -25   5   6    7.67   42.07
 -23  -5   6   -6.81   48.44
  23  -5  -6    9.45   32.97
  23  -5  -6   16.47    4.50
 -23  -5   6   13.47    5.87
  23   5  -6   50.33   41.45
 -23   5   6  -32.12   36.85
  23   5  -6   17.82    6.02
  23   5  -6   12.24    5.02
  21  -5  -6   19.46    4.93
 -21  -5   6    7.95    5.33
  21  -5  -6   14.57   25.97
 -21  -5   6  -10.03   40.63
 -21   5   6    4.99   29.89
  21   5  -6  -10.87   32.89
  21   5  -6   22.54    6.04
  21   5  -6   16.92    5.73
  19  -5  -6    8.45   22.75
 -19  -5   6  -28.31   35.35
  19  -5  -6   24.07    5.46
  19   5  -6   32.30   32.31
  19   5  -6   17.87    5.47
  19   5  -6   26.51    6.20
 -19   5   6   67.04   36.09
  17  -5  -6  -10.83   19.87
 -17  -5   6    1.64   30.18
  17  -5  -6   11.65    4.09
  17   5  -6    7.73    3.77
 -17   5   6    8.74    2.78
 -17   5   6   26.38   29.99
  17   5  -6  -15.39   25.36
  17   5  -6   12.95    4.52
  15  -5  -6   24.71   21.84
 -15  -5   6    2.18   27.71
  15  -5  -6    9.86    3.65
  15   5  -6   12.96    4.28
 -15   5   6   10.40    3.43
 -15   5   6   21.17   22.82
  15   5  -6  -30.02   22.88
  15   5  -6   16.12    4.75
  13  -5  -6  -21.06   19.85
  13  -5  -6    9.10    3.76
 -13  -5   6   34.33   26.42
  13   5  -6   -2.88   19.77
 -13   5   6    8.21    3.10
  13   5  -6    8.66    3.54
  13   5  -6   14.52    4.56
 -11  -5   6   56.27   26.50
  11  -5  -6   41.98    6.94
  11  -5  -6   19.43   20.70
 -11   5   6   53.14    5.86
  11   5  -6   31.12    5.82
  11   5  -6   38.63    6.48
  11   5  -6   54.28   23.96
 -11   5   6   24.68   22.05
   9  -5  -6   34.16    6.30
   9  -5  -6   45.66   22.29
  -9  -5   6    7.08   22.58
   9   5  -6   26.74   20.58
   9   5  -6   25.56    4.78
  -9   5   6   29.54    5.94
   9   5  -6   21.88    4.65
  -9   5   6   32.70   20.88
   7  -5  -6    3.69    2.75
  -7  -5   6   11.39   17.95
   7  -5  -6    4.77   18.68
  -7   5   6    6.72   14.18
  -7   5   6    5.06    3.15
   7   5  -6    6.45   17.39
   7   5  -6   16.70    3.57
   7   5  -6   16.60    3.85
   5  -5  -6   38.47    6.38
  -5  -5   6   30.08   21.17
   5  -5  -6   38.89   22.00
   5  -5  -6   33.64    6.65
  -5  -5   6   33.87    5.30
  -5   5   6   38.46    6.52
   5   5  -6   45.58    6.44
   5   5  -6   42.63    6.12
  -5   5   6   18.92   20.60
   5   5  -6   60.44   20.55
   5   5  -6   38.29    4.11
   3  -5  -6   66.22    7.65
  -3  -5   6   59.80   18.60
   3  -5  -6   89.33    8.14
  -3  -5   6   78.58    6.40
   3  -5  -6  116.83   31.31
   3   5  -6   59.14    6.07
   3   5  -6   48.24    5.55
  -3   5   6   77.86   10.13
  -3   5   6  115.27   29.49
   3   5  -6   76.25   21.06
   3   5  -6   66.50    5.03
   1  -5  -6   52.69    8.61
   1  -5  -6   50.34    7.76
  -1  -5   6   55.90    5.48
   1  -5  -6   54.67   23.87
  -1  -5   6   36.44   19.65
   1   5  -6   59.25   18.86
   1   5  -6   49.46    3.51
   1   5  -6   57.81    5.92
  -1   5   6   55.88   24.84
   1   5  -6   56.21    5.44
  -1   5   6   54.06    8.00
   1  -5   6   50.46   19.55
   1  -5   6   59.24    5.55
  -1  -5  -6   45.05   21.18
  -1  -5  -6   76.51   10.98
  -1  -5  -6   57.10    8.30
   1   5   6   59.71    8.66
   1   5   6   66.44    7.39
  -1   5  -6   65.02    5.67
  -1   5  -6   65.04    6.45
   1   5   6   69.41   23.50
  -1   5  -6   73.15   20.78
  -3  -5  -6   35.51   19.55
   3  -5   6   12.14   15.26
   3  -5   6   25.21    4.19
  -3  -5  -6   18.98    4.96
  -3  -5  -6   19.93    5.18
   3   5   6   25.58    5.87
  -3   5  -6   20.21    4.60
   3   5   6   13.33    4.37
  -3   5  -6   11.78    2.89
   3   5   6    9.37   19.10
  -3   5  -6   18.00   14.04
  -5  -5  -6    3.15   18.95
   5  -5   6   13.59    3.14
  -5  -5  -6   19.49    5.23
  -5  -5  -6   24.32    5.66
   5  -5   6   21.16   15.93
   5   5   6    9.64   20.54
   5   5   6   15.79    5.14
  -5   5  -6    5.22   12.26
  -5   5  -6   17.26    2.91
  -5   5  -6    8.26    3.07
   7  -5   6   71.36    5.80
  -7  -5  -6   80.58   29.37
  -7  -5  -6   61.54    8.59
   7  -5   6   54.29   18.49
   7   5   6   93.02   30.97
  -7   5  -6   78.12   19.11
  -7   5  -6   71.02    7.44
   7   5   6   90.49    9.17
   9  -5   6   25.45    4.05
  -9  -5  -6   29.07    5.71
  -9  -5  -6   17.52   22.03
  -9  -5  -6   27.02    5.66
   9  -5   6   16.38   15.49
   9   5   6   25.18    6.22
   9   5   6   -0.25   23.46
  -9   5  -6   15.43   12.79
  -9   5  -6   29.34    5.74
  11  -5   6   22.87   14.97
 -11  -5  -6   17.79    4.63
 -11  -5  -6   38.01   25.41
 -11  -5  -6   18.12    4.60
  11  -5   6   19.00    3.36
  11   5   6   14.02    5.09
 -11   5  -6   18.82   12.30
 -11   5  -6   23.11    5.32
  11   5   6    2.28   24.27
  13  -5   6   -2.31   12.20
 -13  -5  -6   -7.99   23.76
  13  -5   6   12.38    2.75
 -13  -5  -6   17.46    4.64
 -13  -5  -6   10.81    3.98
 -13   5  -6    4.12    9.89
  13   5   6   -4.22   24.74
 -13   5  -6    7.83    3.77
  13   5   6    6.40    4.10
  15  -5   6   28.00    2.65
  15  -5   6   31.88    4.17
  15  -5   6   14.11    8.94
 -15  -5  -6   27.13    5.25
 -15  -5  -6   43.19   29.47
 -15  -5  -6   30.19    5.83
 -15   5  -6   28.03    6.73
  15   5   6   27.49    7.13
  17  -5   6   23.71    3.56
  17  -5   6   27.33    4.04
 -17  -5  -6   27.38    5.41
 -17  -5  -6   18.81   29.11
 -17  -5  -6   31.15    4.48
 -17  -5  -6   27.30    4.99
  17   5   6   12.27   33.46
 -17   5  -6   41.30    8.04
  17   5   6   22.13    6.94
 -19  -5  -6  -17.68   29.96
 -19  -5  -6   10.42    3.25
 -19  -5  -6    9.57    3.33
  19  -5   6   13.78    2.82
 -19  -5  -6   15.43    3.00
  19  -5   6   10.41    3.01
  19   5   6  -10.81   37.58
 -19   5  -6   14.80    4.90
  19   5   6   19.04    6.26
  21  -5   6   29.83    4.17
  21  -5   6   31.93    5.52
 -21  -5  -6   15.16   39.81
 -21  -5  -6   20.00    4.24
 -21   5  -6   17.65    5.68
  21   5   6   23.64    7.57
  23  -5   6    8.14    3.28
  23  -5   6    7.86    2.44
 -23  -5  -6    0.05    0.90
 -23  -5  -6   -7.76   43.27
  23   5   6    3.74    4.91
 -23   5  -6    4.18    3.45
  25  -5   6    3.30    2.94
 -25  -5  -6    0.35    0.56
 -25  -5  -6  -64.58   51.23
 -25   5  -6    5.52    3.98
  25   5   6    5.65    5.84
  27  -5   6    6.12    3.78
 -27  -5  -6   21.62   73.83
  27   5   6    5.30    5.26
 -27   5  -6    4.26    4.00
  29  -5   6    8.39    4.70
  29   5   6    6.04    6.31
 -29   5  -6    5.52    4.35
 -30  -6   6    7.84    5.56
  30  -6  -6   12.01    4.50
  30   6  -6   11.70    5.46
  30   6  -6    3.03    5.04
 -28  -6   6   10.07    6.34
  28  -6  -6   15.61    4.87
  28   6  -6   19.13    6.66
 -28   6   6   22.56   60.65
  28   6  -6    5.65    5.21
 -26  -6   6  -20.84   78.68
  26  -6  -6   20.35    5.26
  26  -6  -6    2.34   44.53
 -26  -6   6   19.29    6.96
 -26   6   6   20.61   50.46
  26   6  -6   25.07    7.55
  26   6  -6   21.85    6.50
  24  -6  -6   37.71    7.28
  24  -6  -6   17.15   39.61
 -24  -6   6    6.39   61.11
 -24  -6   6   50.43   10.84
  24   6  -6   38.35    3.25
  24   6  -6   66.13   51.57
  24   6  -6   37.94    8.15
  24   6  -6   38.27    9.06
 -24   6   6    1.86   43.59
  22  -6  -6   59.83    8.56
 -22  -6   6   51.69   10.76
 -22  -6   6   54.84   56.66
  22  -6  -6   43.51   37.91
  22   6  -6   57.00    4.60
  22   6  -6   66.55   11.98
 -22   6   6  -13.28   38.29
  22   6  -6   10.68   43.82
  22   6  -6   67.66   10.97
  20  -6  -6   79.40    8.77
 -20  -6   6    0.17   42.60
  20  -6  -6   53.02   34.15
 -20  -6   6   79.55   12.93
  20   6  -6   77.93   11.38
  20   6  -6   90.12    6.31
  20   6  -6   83.61   36.03
 -20   6   6  -25.95   35.00
  20   6  -6   98.24   10.64
  18  -6  -6   60.19   29.19
  18  -6  -6  110.34   10.10
 -18  -6   6   62.04   44.71
  18   6  -6  123.02    7.93
  18   6  -6  119.69   11.85
  18   6  -6  118.36   11.23
  18   6  -6   86.00   34.89
 -18   6   6   35.43   34.17
  16  -6  -6  114.92   10.57
  16  -6  -6   89.92   32.33
 -16  -6   6  101.17   37.01
 -16   6   6  144.25   41.92
  16   6  -6  121.83   11.41
  16   6  -6  135.41    8.59
 -16   6   6  122.74    8.83
  16   6  -6  129.90   11.36
  16   6  -6   82.81   31.34
  14  -6  -6  182.85   13.29
  14  -6  -6  165.69   40.24
 -14  -6   6  155.28   43.73
  14   6  -6  171.29   13.28
 -14   6   6  165.19   11.60
  14   6  -6  166.17   40.40
 -14   6   6  188.86   40.46
  14   6  -6  172.16   10.63
  14   6  -6  172.65   13.39
  12  -6  -6  318.09   19.56
 -12  -6   6  376.59   60.24
  12  -6  -6  393.39   49.05
  12   6  -6  293.75   18.90
  12   6  -6  319.57   17.04
 -12   6   6  338.97   19.05
  12   6  -6  308.36   19.29
  12   6  -6  301.43   50.84
  10  -6  -6  355.90   21.00
  10  -6  -6  255.11   47.05
 -10  -6   6  332.17   54.10
 -10   6   6  359.70   54.58
 -10   6   6  361.78   20.56
  10   6  -6  347.98   18.45
  10   6  -6  364.02   20.64
  10   6  -6  351.09   53.20
  10   6  -6  339.45   19.83
   8  -6  -6  414.31   51.30
  -8  -6   6  349.17   45.46
   8  -6  -6  408.46   22.47
  -8   6   6  364.51   21.51
   8   6  -6  368.03   19.56
   8   6  -6  360.30   20.11
   8   6  -6  364.22   20.90
   8   6  -6  395.24   45.17
  -8   6   6  338.45   54.10
   6  -6  -6  481.05   54.06
  -6  -6   6  507.85   56.59
   6  -6  -6  573.83   30.02
  -6   6   6  549.31   57.13
   6   6  -6  550.88   27.22
   6   6  -6  584.04   28.74
  -6   6   6  535.81   29.56
   6   6  -6  544.83   52.48
   6   6  -6  587.13   27.72
  -4  -6   6  753.07   63.58
   4  -6  -6  612.58   32.55
   4  -6  -6  546.84   58.25
  -4   6   6  626.79   63.83
   4   6  -6  643.53   31.08
   4   6  -6  739.14   59.63
   4   6  -6  672.80   30.72
   4   6  -6  576.81   28.89
  -4   6   6  566.66   32.11
  -2  -6   6  744.44   66.47
   2  -6  -6  906.81   43.76
   2  -6  -6  839.66   76.07
   2   6  -6  945.99   41.75
   2   6  -6  845.78   66.35
   2   6  -6  870.49   38.57
  -2   6   6  823.03   75.27
   2   6  -6  947.38   41.81
   0  -6   6  870.82   69.46
   0  -6  -6  967.64   81.34
   0  -6  -6  916.65   45.87
   0  -6   6  887.37   43.08
   0   6  -6  976.94   69.46
   0   6   6  995.09   49.59
   0   6  -6  971.52   44.30
   0   6  -6  982.17   43.66
   0   6   6  968.45   82.76
   2  -6   6  582.04   51.30
   2  -6   6  551.79   26.73
  -2  -6  -6  433.72   53.67
  -2  -6  -6  539.13   29.51
   2   6   6  491.64   60.32
  -2   6  -6  551.49   26.66
   2   6   6  531.64   29.83
  -2   6  -6  578.57   28.41
  -2   6  -6  585.97   49.11
  -4  -6  -6  593.02   61.43
  -4  -6  -6  453.62   26.31
   4  -6   6  482.26   46.90
   4  -6   6  470.77   23.43
   4   6   6  464.10   27.07
   4   6   6  480.45   57.45
  -4   6  -6  472.90   22.86
  -4   6  -6  489.62   25.41
  -4   6  -6  452.16   42.36
  -6  -6  -6  584.51   32.24
  -6  -6  -6  651.53   67.08
   6  -6   6  592.70   28.97
  -6   6  -6  644.08   50.31
   6   6   6  539.73   64.82
  -6   6  -6  648.44   31.83
   6   6   6  647.19   33.96
  -8  -6  -6  455.49   25.99
  -8  -6  -6  497.98   59.89
   8  -6   6  469.66   22.65
  -8   6  -6  434.76   25.18
   8   6   6  492.27   62.78
   8   6   6  453.41   27.50
  -8   6  -6  514.88   41.63
 -10  -6  -6  393.90   22.81
  10  -6   6  393.88   39.24
 -10  -6  -6  352.82   57.41
  10  -6   6  407.19   19.29
  10   6   6  391.61   24.74
 -10   6  -6  384.22   22.61
 -10   6  -6  292.77   32.20
  10   6   6  368.82   61.15
  12  -6   6  191.34   10.72
 -12  -6  -6  188.80   13.92
 -12  -6  -6  194.96   44.10
  12  -6   6  162.52   27.15
 -12   6  -6  174.32   13.70
  12   6   6  176.99   49.72
  12   6   6  182.67   15.79
 -14  -6  -6  227.79   49.82
  14  -6   6  185.10   22.70
  14  -6   6  185.05   24.94
 -14  -6  -6  193.70   14.32
  14  -6   6  203.66   11.21
 -14   6  -6  201.80   15.12
  14   6   6  221.37   17.67
  14   6   6  128.54   62.93
 -16  -6  -6  169.02   10.36
 -16  -6  -6  136.97   42.86
  16  -6   6  181.44   10.14
 -16  -6  -6  175.22   13.20
 -16   6  -6  181.95   14.54
  16   6   6  185.19   16.61
  16   6   6   94.05   46.16
  18  -6   6  143.55    8.57
  18  -6   6  135.95    8.08
 -18  -6  -6  120.59   46.00
 -18  -6  -6  147.22   11.29
 -18  -6  -6  150.69    8.65
  18  -6   6  145.75    7.76
  18   6   6   61.06   45.27
  18   6   6  137.56   14.63
 -18   6  -6  122.59   12.38
 -20  -6  -6   62.39   51.38
  20  -6   6   81.26    6.44
 -20  -6  -6  105.32    8.72
  20  -6   6   82.92    5.93
 -20  -6  -6   72.82    7.21
 -20   6  -6   63.68   10.50
  20   6   6   74.04   13.37
 -22  -6  -6  -45.35   40.26
 -22   6  -6   51.58    9.76
  22   6   6   49.70   10.92
  24  -6   6   28.52    5.55
 -24  -6  -6   31.65   58.49
 -24   6  -6   24.29    6.70
  24   6   6   35.05    9.92
  26  -6   6   20.06    5.08
 -26   6  -6    7.30    5.15
  26   6   6    8.50    6.33
  28  -6   6   27.99    6.47
  28   6   6   26.69    9.48
 -28   6  -6   24.45    7.22
 -29  -7   6   -3.88    3.06
  29  -7  -6    2.21    3.49
  29   7  -6    4.95    4.85
  29   7  -6    6.84    6.47
  27  -7  -6    3.50    3.69
 -27  -7   6    6.28    5.94
  27   7  -6    3.09    5.18
  27   7  -6    9.36    5.69
  25  -7  -6  -88.64   43.14
 -25  -7   6   14.47    7.20
 -25  -7   6   60.40   79.83
  25  -7  -6    8.15    4.04
 -25   7   6   -3.53   57.39
  25   7  -6   15.48    5.73
  25   7  -6   12.37    6.35
  23  -7  -6   20.30    5.58
 -23  -7   6   42.10   53.22
  23  -7  -6  100.19   44.65
 -23  -7   6   19.61    7.12
  23   7  -6    5.88    4.88
 -23   7   6  -20.55   46.43
  23   7  -6   14.55    5.86
 -21  -7   6   28.15    8.68
  21  -7  -6   -3.00   39.42
 -21  -7   6  -69.34   53.27
  21   7  -6  -14.88   43.83
 -21   7   6  -85.05   41.30
  21   7  -6   29.52    7.35
  19  -7  -6   21.39   34.01
 -19  -7   6  -55.98   46.34
 -19  -7   6   27.46    8.22
  19  -7  -6   45.74    7.69
  19   7  -6   31.95   32.43
  19   7  -6   38.37    8.34
 -19   7   6   28.23   39.48
  19   7  -6   38.87    9.02
  19   7  -6   39.28    3.77
  17  -7  -6   24.05    5.55
 -17  -7   6    3.65   40.17
  17  -7  -6   75.03   35.95
  17   7  -6   24.83   34.55
  17   7  -6   26.01    4.08
  17   7  -6   23.95    6.17
  17   7  -6   23.59    6.24
 -17   7   6  -22.82   30.69
 -15  -7   6  -27.92   34.15
  15  -7  -6   39.60   31.06
  15  -7  -6   19.55    5.42
 -15   7   6   10.39    3.22
 -15   7   6  -10.90   28.96
  15   7  -6   26.51    4.04
  15   7  -6   33.39    7.09
  15   7  -6   26.81    6.53
  15   7  -6  -12.64   29.90
 -13  -7   6   15.33   26.61
  13  -7  -6   60.31   32.37
  13  -7  -6   44.06    7.90
 -13   7   6   34.47   34.20
  13   7  -6   43.34    7.60
  13   7  -6   54.19    8.76
  13   7  -6   69.11   32.80
 -13   7   6   45.04    6.85
  13   7  -6   46.03    4.94
  11  -7  -6   76.21   10.29
  11  -7  -6   89.59   33.57
 -11  -7   6  131.54   37.92
  11   7  -6   72.11    7.92
  11   7  -6   59.22    9.30
  11   7  -6   83.04    6.79
 -11   7   6   77.55    7.94
  11   7  -6   41.52   25.06
   9  -7  -6   45.64   29.30
   9  -7  -6   39.06    7.75
  -9  -7   6   76.55   32.45
  -9   7   6   46.05    7.65
   9   7  -6   48.63    7.74
   9   7  -6   36.95   21.02
   9   7  -6   47.41    7.12
   9   7  -6   44.94    5.20
  -9   7   6   66.62   29.89
  -7  -7   6   12.86   23.68
   7  -7  -6  -23.05   21.32
   7  -7  -6   10.32    4.24
   7   7  -6   18.00    4.36
   7   7  -6   16.71    4.74
   7   7  -6    3.76   21.53
   7   7  -6   17.71    3.91
  -7   7   6   23.51    5.80
  -7   7   6   -6.93   22.74
  -5  -7   6   93.61   30.01
   5  -7  -6   56.28    9.30
   5  -7  -6    3.03   23.88
  -5   7   6   58.60    8.75
   5   7  -6   64.75    6.38
   5   7  -6   45.19    5.18
   5   7  -6   47.17   23.31
  -5   7   6   63.53   30.74
   5   7  -6   65.26    8.86
   3  -7  -6  158.15   39.82
  -3  -7   6  106.82   31.27
   3  -7  -6  117.63   10.67
   3   7  -6  107.15    8.97
   3   7  -6  111.79    9.38
   3   7  -6  124.42   30.63
  -3   7   6  131.75   36.89
   3   7  -6  110.11    7.43
   1  -7  -6   66.13   10.06
  -1  -7   6   33.66   21.24
   1  -7  -6   -5.94   26.39
   1   7  -6   56.93    3.73
  -1   7   6   70.27   30.51
   1   7  -6   57.61    6.41
   1   7  -6   67.17    6.64
   1   7  -6   50.91   22.82
  -1  -7  -6   29.77    6.61
  -1  -7  -6    9.59   27.44
   1  -7   6   22.95   19.87
  -1   7  -6    8.81   16.26
   1   7   6   13.03   20.15
  -1   7  -6   29.25    5.37
  -1   7  -6   31.08    5.82
   1   7   6   31.99    6.83
  -3  -7  -6   24.38    6.08
  -3  -7  -6   27.15   24.99
   3  -7   6   13.89   16.50
   3   7   6   43.56   30.43
   3   7   6   21.74    6.01
  -3   7  -6   24.23   17.41
  -3   7  -6   17.14    4.51
   5  -7   6   11.26    3.06
  -5  -7  -6   -0.54   26.37
  -5  -7  -6    3.15    3.28
   5   7   6   12.45    4.98
   5   7   6  -14.79   26.47
  -5   7  -6   11.73    3.90
  -5   7  -6   16.14   14.87
   7  -7   6   14.93    3.26
  -7  -7  -6    6.92   26.91
  -7  -7  -6    8.44    4.00
  -7   7  -6   17.95   15.55
  -7   7  -6    7.69    3.83
   7   7   6    8.79    4.28
   7   7   6   29.93   31.94
   9  -7   6   11.19    2.98
  -9  -7  -6    7.75    3.97
  -9  -7  -6    2.08   30.19
   9  -7   6    1.63   16.21
   9   7   6   -4.53   24.14
  -9   7  -6   10.31    4.03
   9   7   6   13.01    5.68
 -11  -7  -6    1.25    3.30
 -11  -7  -6  -11.80   30.34
  11  -7   6    1.76   22.12
  11  -7   6    4.84    2.19
  11  -7   6    8.41   17.20
  11   7   6   30.46   35.69
 -11   7  -6   15.03    4.92
  11   7   6   12.62    5.13
  13  -7   6    5.82   18.30
  13  -7   6   15.34    3.14
  13  -7   6    9.16   16.46
 -13  -7  -6   34.55   35.01
 -13  -7  -6    5.07    3.87
 -13   7  -6    7.70    4.02
  13   7   6    3.61    4.02
  13   7   6    0.67   37.11
 -15  -7  -6    4.12    3.61
 -15  -7  -6  -61.28   34.50
  15  -7   6    7.74    2.39
 -15   7  -6    8.73    4.23
  15   7   6   -8.08   42.60
  15   7   6    6.14    4.46
 -17  -7  -6    3.34    3.51
 -17  -7  -6  -21.55   39.88
  17   7   6    7.53    5.26
 -17   7  -6    4.48    3.81
  17   7   6  -34.81   47.43
  19  -7   6   11.71    2.79
 -19  -7  -6    8.62    4.17
 -19  -7  -6    7.07   45.77
 -19   7  -6    5.59    4.35
  19   7   6  -13.32   52.03
  19   7   6   -1.59    3.54
 -21  -7  -6   15.16    4.56
  21  -7   6   11.10    2.42
 -21  -7  -6  -35.51   43.55
  21  -7   6    9.75    2.21
  21   7   6    8.80    6.27
 -21   7  -6    7.61    4.67
  23  -7   6    3.46    2.30
 -23  -7  -6  -87.91   51.20
 -23  -7  -6    2.87    2.96
 -23   7  -6    0.35    3.00
  23   7   6    3.67    4.71
 -25  -7  -6   -0.41    1.11
  25  -7   6    6.39    2.94
 -25   7  -6    0.52    3.07
  25   7   6    4.06    5.29
 -27   7  -6    5.88    5.29
  27   7   6    2.84    5.27
  26  -8  -6    7.01    4.35
 -26  -8   6    4.73    5.45
  26   8  -6   16.03    6.75
  26   8  -6   10.16    6.46
 -24  -8   6   13.48    7.50
  24  -8  -6   23.16    5.97
 -24  -8   6    8.89   91.13
  24  -8  -6  -41.18   51.23
  24   8  -6   21.01    7.24
  24   8  -6   32.14    7.85
 -24   8   6   35.76   62.94
 -22  -8   6   26.56    8.71
  22  -8  -6   53.32   46.45
  22  -8  -6   27.98    6.37
 -22  -8   6  120.73   73.33
 -22  -8   6 -125.57   87.71
  22   8  -6   24.29    7.03
 -22   8   6   37.90   53.74
  22   8  -6   28.10    7.76
 -20  -8   6   55.66   12.29
  20  -8  -6   69.81   42.97
 -20  -8   6  -78.71   59.63
  20  -8  -6   47.62    8.40
  20   8  -6   48.74    3.58
  20   8  -6   47.60    9.97
  20   8  -6   40.79    8.76
 -20   8   6   -7.40   46.02
  18  -8  -6   74.52   10.46
 -18  -8   6  -80.68   49.84
  18  -8  -6   61.34   37.64
 -18   8   6   29.04   44.50
  18   8  -6   68.69   10.98
  18   8  -6   63.80    4.94
  18   8  -6   56.23   10.03
  16  -8  -6   86.94   11.68
  16  -8  -6   20.42   33.36
 -16  -8   6   95.81   14.51
 -16  -8   6   79.91   51.47
  16   8  -6   80.90   45.11
 -16   8   6   37.01   37.33
  16   8  -6   81.76    6.09
  16   8  -6   70.32   10.94
  16   8  -6   75.87   11.62
  14  -8  -6   99.55   42.65
  14  -8  -6  158.13   12.51
 -14  -8   6  143.97   48.02
 -14   8   6   -0.54   33.86
  14   8  -6  114.49   11.77
  14   8  -6  125.14    8.66
  14   8  -6  135.74   45.50
  14   8  -6  132.93   12.25
  12  -8  -6  129.80   41.24
 -12  -8   6  160.59   50.12
  12  -8  -6  245.14   16.79
  12   8  -6  197.44   12.33
 -12   8   6  207.76   14.05
  12   8  -6  194.18   47.96
  12   8  -6  207.97   15.44
  12   8  -6  214.62   16.20
  10  -8  -6  248.94   53.50
 -10  -8   6  275.25   53.50
  10  -8  -6  252.57   17.62
  10   8  -6  198.56   46.28
  10   8  -6  243.67   17.13
  10   8  -6  238.73   14.23
  10   8  -6  228.01   16.06
 -10   8   6  245.08   16.09
   8  -8  -6  238.43   16.77
   8  -8  -6  173.59   44.55
  -8  -8   6  172.31   41.15
   8   8  -6  220.25   15.95
  -8   8   6  215.62   15.57
  -8   8   6  278.78   54.81
   8   8  -6  200.01   14.30
   8   8  -6  248.44   14.12
   8   8  -6  176.95   39.74
  -6  -8   6  297.53   51.75
   6  -8  -6  247.57   50.99
   6  -8  -6  267.92   18.64
   6   8  -6  252.07   17.44
   6   8  -6  278.66   16.14
  -6   8   6  238.38   50.50
   6   8  -6  264.75   15.85
   6   8  -6  288.37   48.28
   4  -8  -6  384.59   23.95
  -4  -8   6  421.97   59.35
   4  -8  -6  381.48   61.46
   4   8  -6  376.60   22.34
   4   8  -6  403.22   50.92
   4   8  -6  368.53   19.60
   4   8  -6  420.46   21.63
  -4   8   6  285.66   56.26
  -2  -8   6  381.69   56.43
   2  -8  -6  300.21   58.43
   2  -8  -6  381.69   24.32
   2   8  -6  401.14   18.82
   2   8  -6  419.86   23.01
  -2   8   6  499.44   71.25
   2   8  -6  396.28   49.97
   2   8  -6  394.51   22.04
   0  -8  -6  385.53   24.62
   0  -8  -6  405.47   65.25
   0   8  -6  408.06   22.80
   0   8   6  420.07   67.05
   0   8  -6  415.21   22.56
   0   8  -6  399.13   47.42
  -2  -8  -6  371.54   24.41
  -2  -8  -6  567.98   66.91
   2   8   6  286.04   57.51
  -2   8  -6  412.94   23.26
   2   8   6  422.89   25.90
  -2   8  -6  438.57   49.21
  -4  -8  -6  348.13   62.13
   4  -8   6  325.33   41.76
  -4  -8  -6  391.85   23.51
  -4   8  -6  349.30   20.97
  -4   8  -6  388.70   43.68
   4   8   6  319.86   22.79
   4   8   6  291.35   59.29
  -6  -8  -6  242.52   54.96
  -6  -8  -6  277.57   20.00
  -6   8  -6  308.53   19.29
   6   8   6  275.61   60.75
   6   8   6  321.04   21.78
   8  -8   6  380.05   56.22
   8  -8   6  279.32   41.86
  -8  -8  -6  389.94   64.92
  -8  -8  -6  327.42   22.36
   8   8   6  339.43   61.81
   8   8   6  358.44   24.11
  -8   8  -6  369.93   21.99
  10  -8   6  226.91   40.28
  10  -8   6  292.00   40.16
 -10  -8  -6  213.04   49.96
 -10  -8  -6  267.20   19.08
 -10   8  -6  274.43   18.51
  10   8   6  226.51   57.67
  10   8   6  252.76   20.17
 -12  -8  -6  140.19   13.36
  12  -8   6  179.66   33.82
 -12  -8  -6  178.58   48.02
  12  -8   6  147.93   29.05
  12   8   6  161.52   15.58
 -12   8  -6  168.38   14.03
  12   8   6  134.36   54.08
  14  -8   6  120.54   23.18
 -14  -8  -6  122.63   11.80
 -14  -8  -6  103.74   50.19
  14  -8   6  127.64   22.37
  14  -8   6  115.96    8.17
  14   8   6  129.12   58.35
  14   8   6  115.56   13.76
 -14   8  -6  117.47   11.88
 -16  -8  -6   95.35   10.64
  16  -8   6  100.36    7.38
 -16  -8  -6   65.55   50.95
  16   8   6   91.94   14.65
 -16   8  -6  121.35   12.09
  16   8   6  188.17   70.98
  18  -8   6   70.42    5.76
 -18  -8  -6   11.67   52.60
 -18  -8  -6   47.71    8.69
 -18   8  -6   67.49   10.99
  18   8   6  102.78   16.66
 -20  -8  -6   53.45    8.67
 -20  -8  -6   52.93   55.14
 -20   8  -6   47.04    9.79
  20   8   6   44.95   11.17
 -22  -8  -6  -14.43   62.40
 -22  -8  -6   37.22    7.13
 -22   8  -6   30.25    7.90
  22   8   6   28.29   10.00
 -24  -8  -6   17.66    4.71
 -24   8  -6    4.20    4.30
  24   8   6   14.46    6.70
 -26  -8  -6   -0.44    1.38
 -26   8  -6    3.90    4.63
  26   8   6    6.08    6.35
  25  -9  -6    7.60    4.54
 -25  -9   6    2.79    4.62
  25   9  -6    0.65    4.22
  25   9  -6    0.47    4.27
  23  -9  -6    6.36    4.33
 -23  -9   6    8.50    6.87
  23   9  -6    0.82    4.24
  23   9  -6    3.81    5.28
 -21  -9   6    6.73    6.07
  21  -9  -6   21.29   50.85
 -21  -9   6  -57.79   93.83
  21  -9  -6   -1.18    2.71
 -21  -9   6   -0.60   59.68
  21   9  -6   -0.13    3.49
 -21   9   6   54.09   63.23
  21   9  -6    5.17    4.80
 -19  -9   6   19.82   84.94
  19  -9  -6    2.90   49.77
  19  -9  -6   10.88    4.91
 -19  -9   6  -54.82   65.64
 -19  -9   6    0.29    4.43
  19   9  -6   11.40    6.28
 -19   9   6   46.51   54.57
  19   9  -6    8.95    1.66
  19   9  -6   12.02    5.49
  17  -9  -6   15.91    5.13
 -17  -9   6 -181.92   72.29
 -17  -9   6  100.63   61.46
 -17  -9   6    2.65    4.86
  17  -9  -6   -5.44   44.53
  17   9  -6    5.67    2.03
  17   9  -6   16.99    6.04
 -17   9   6   13.19   42.76
  17   9  -6    4.52    4.75
  15  -9  -6    4.55    4.13
 -15  -9   6   34.39   67.85
 -15  -9   6    1.77    4.61
 -15  -9   6  -26.21   37.39
  15  -9  -6  -12.55   35.95
 -15   9   6  -60.09   44.52
  15   9  -6    6.55    2.20
  15   9  -6    4.14    3.90
  15   9  -6    8.53    5.07
  13  -9  -6   18.00    5.88
  13  -9  -6   26.86   37.53
 -13  -9   6  -54.74   50.07
  13   9  -6   20.40    4.16
  13   9  -6    7.64    4.74
  13   9  -6   19.78    5.81
 -13   9   6   -4.83   41.61
  11  -9  -6   -0.62   35.68
  11   9  -6   16.54    5.31
  11   9  -6   14.51    4.54
  11   9  -6   22.49    4.48
 -11   9   6   19.02    5.06
 -11   9   6  -12.19   34.91
   9  -9  -6    2.90    3.48
   9  -9  -6   20.50   38.32
   9   9  -6    4.22    2.42
   9   9  -6    4.67    3.90
  -9   9   6    4.76    3.54
   9   9  -6    4.41    3.13
  -9   9   6   14.18   35.19
   7  -9  -6  -25.68   33.32
   7  -9  -6   -0.32    2.55
   7   9  -6    5.82    2.79
   7   9  -6    3.41    2.41
   7   9  -6   14.23    4.95
  -7   9   6   48.91   37.40
  -5  -9   6   -0.46   32.46
   5  -9  -6    0.65    2.84
   5  -9  -6    3.28   33.54
   5   9  -6    0.27    1.74
   5   9  -6    0.11    2.53
  -5   9   6    4.90   36.45
   5   9  -6    0.92    1.89
   3  -9  -6    6.04   33.81
  -3  -9   6  -23.88   28.34
   3  -9  -6    0.99    3.03
   3   9  -6    1.27    2.12
  -3   9   6  -33.64   24.06
   3   9  -6   -0.21    2.42
   3   9  -6    0.74    1.44
  -1  -9   6    2.32   25.67
   1  -9  -6    4.23    3.62
   1  -9  -6  -12.74   33.96
  -1   9   6   -9.11   36.24
   1   9  -6    3.11    2.97
   1  -9   6   46.04   26.53
  -1  -9  -6    4.15    3.40
  -1  -9  -6    8.69   33.80
   1  -9   6   -8.46   36.08
  -1   9  -6    0.06    2.01
   1   9   6   24.51   37.41
  -3  -9  -6   -2.23    2.30
   3  -9   6  -11.41   25.53
  -3  -9  -6    6.54   28.50
   3  -9   6    7.81   33.48
   3   9   6    0.63    2.93
  -3   9  -6    1.46    2.31
   3   9   6   20.76   42.34
   5  -9   6   -0.98   22.97
   5  -9   6  -12.10   34.82
  -5  -9  -6    5.04    4.32
  -5  -9  -6    5.95   31.13
   5   9   6    5.45    4.25
   5   9   6  -23.99   28.04
  -5   9  -6   10.33    4.07
   7  -9   6   22.63   25.53
  -7  -9  -6  -22.25   38.00
  -7  -9  -6   13.08    5.03
   7  -9   6   30.56   34.14
   7   9   6   15.34    6.05
  -7   9  -6   17.87    5.24
   7   9   6   -9.02   43.76
  -9  -9  -6    6.44    4.56
   9  -9   6   13.54   33.59
   9  -9   6   14.55   24.09
  -9  -9  -6   41.71   44.34
   9   9   6   16.09    6.34
  -9   9  -6   13.59    4.99
   9   9   6   24.12   38.11
 -11  -9  -6   17.63    5.90
  11  -9   6   10.03   30.35
  11  -9   6   -7.06   23.83
 -11  -9  -6  -66.99   42.34
  11   9   6   23.45    7.34
 -11   9  -6    8.43    4.01
  11   9   6   44.74   53.20
 -13  -9  -6    7.17    4.56
  13  -9   6    0.13   26.60
 -13  -9  -6   50.75   53.52
  13  -9   6   -1.29   22.54
  13   9   6  -39.57   57.38
 -13   9  -6   16.26    5.95
  13   9   6   21.27    7.02
 -15  -9  -6   12.16    4.81
 -15  -9  -6  -52.61   52.04
  15  -9   6   -5.87    9.59
 -15   9  -6   17.40    6.02
  15   9   6   12.54    5.45
  15   9   6    8.66   64.99
 -17  -9  -6    4.71    4.27
 -17  -9  -6  -30.90   57.08
 -17   9  -6    3.38    4.09
  17   9   6    3.32    4.98
 -19  -9  -6    9.65    4.84
 -19  -9  -6   29.30   65.68
  19   9   6    2.24    4.51
 -19   9  -6    2.89    4.15
 -21  -9  -6    5.10    4.24
 -21   9  -6    5.13    4.32
  21   9   6    2.04    4.36
 -23  -9  -6    6.42    4.36
 -23   9  -6    6.36    5.21
  23   9   6    1.71    5.03
 -25   9  -6    0.57    3.77
  25   9   6   -0.20    4.51
 -22 -10   6    7.32    6.75
  22 -10  -6   21.29    6.13
  22  10  -6   13.10    6.50
  22  10  -6   22.40    7.41
 -20 -10   6    4.55   91.27
 -20 -10   6   23.10    8.43
  20 -10  -6   32.02    7.40
 -20 -10   6    2.39   86.83
  20  10  -6   15.85    5.88
  20  10  -6   24.41    7.50
  18 -10  -6  104.30   66.04
 -18 -10   6   32.18    9.67
  18 -10  -6   32.68    7.50
 -18 -10   6  123.33   97.71
 -18 -10   6  -79.48   77.82
  18  10  -6   47.19    9.88
  18  10  -6   30.24    8.06
 -18  10   6   -7.91   62.12
 -16 -10   6  -31.53   65.63
 -16 -10   6  -11.26   86.64
  16 -10  -6   57.45   10.33
  16 -10  -6   61.80   58.74
  16  10  -6   46.01    9.25
  16  10  -6   45.12    4.28
  16  10  -6   33.95    8.18
 -16  10   6  -27.14   51.21
  14 -10  -6   57.70    9.71
 -14 -10   6   44.17   10.98
 -14 -10   6  102.21   65.99
 -14 -10   6   81.91   51.05
  14 -10  -6   -4.44   47.32
  14  10  -6   61.64   11.07
  14  10  -6   64.09    5.72
  14  10  -6   56.98   10.59
 -14  10   6 -120.20   53.10
  12 -10  -6  135.40   54.37
  12 -10  -6  101.37   11.48
 -12 -10   6  108.48   16.29
 -12 -10   6  181.04   83.37
 -12 -10   6   75.48   57.01
  12  10  -6  109.76   14.97
 -12  10   6  -59.87   45.81
  12  10  -6  108.42   10.65
  12  10  -6  100.61    8.10
 -10 -10   6   82.36   53.93
  10 -10  -6  131.09   55.32
 -10 -10   6  132.74   56.31
  10 -10  -6  108.66   14.67
  10  10  -6  110.74    8.97
  10  10  -6  123.19   10.90
  10  10  -6  134.61   12.87
  -8 -10   6   65.91   66.81
  -8 -10   6  186.24   52.30
   8 -10  -6  178.15   58.24
   8 -10  -6  118.65   12.51
   8  10  -6  118.67    9.64
  -8  10   6   33.88   46.79
   8  10  -6  126.61   10.53
   8  10  -6  137.35   13.04
  -6 -10   6   51.02   57.61
  -6 -10   6  168.83   52.58
   6 -10  -6  171.22   14.85
   6 -10  -6  124.06   51.38
  -6  10   6   67.28   47.68
   6  10  -6  177.43   11.63
   6  10  -6  163.69   11.92
   6  10  -6  143.56   13.60
  -4 -10   6  125.96   62.86
  -4 -10   6  196.91   49.58
   4 -10  -6  160.41   14.36
   4 -10  -6   80.82   48.47
   4  10  -6  159.01   10.06
  -4  10   6   19.55   45.07
   4  10  -6  157.20   11.94
   2 -10  -6  142.52   14.28
  -2 -10   6  116.45   42.04
   2 -10  -6   92.49   47.41
  -2 -10   6  183.90   62.48
   2  10  -6  198.07   13.54
   0 -10   6  108.75   39.26
   0 -10  -6  177.28   15.44
   0 -10   6  172.39   55.68
   0 -10  -6  157.09   54.85
   0  10  -6  156.54   12.73
   2 -10   6  240.20   47.22
  -2 -10  -6  189.13   16.08
  -2 -10  -6  142.72   53.99
   2 -10   6  197.94   56.24
  -2  10  -6  159.17   13.21
   2  10   6  157.24   15.33
   4 -10   6  153.12   42.23
  -4 -10  -6  177.34   15.50
   4 -10   6  201.46   58.99
  -4 -10  -6  165.42   57.29
  -4  10  -6  176.87   14.10
   4  10   6  100.78   57.29
   4  10   6  165.95   16.02
   6 -10   6   58.67   33.84
   6 -10   6  181.40   53.29
  -6 -10  -6  120.93   55.91
  -6 -10  -6  202.05   16.85
   6  10   6  151.34   15.84
  -6  10  -6  196.89   15.13
   6  10   6  237.17   74.96
  -8 -10  -6  185.63   59.71
  -8 -10  -6  166.45   15.02
   8 -10   6  154.20   47.45
   8  10   6    9.34   65.19
   8  10   6  148.00   15.40
  -8  10  -6  169.80   14.40
 -10 -10  -6  116.89   12.89
 -10 -10  -6  102.31   62.29
  10 -10   6  149.51   45.25
  10  10   6  121.93   14.19
  10  10   6  156.83   87.51
 -10  10  -6  148.09   13.47
 -12 -10  -6   73.91   47.84
 -12 -10  -6   98.56   13.86
  12 -10   6   47.12   38.21
 -12  10  -6  108.53   11.75
  12  10   6   82.17   13.97
  12  10   6   49.98   58.17
 -14 -10  -6   62.36   11.14
  14 -10   6   22.64   27.47
 -14 -10  -6   50.10   68.20
 -14  10  -6   78.00   11.96
  14  10   6  121.76   84.92
 -16 -10  -6   51.25   72.67
 -16 -10  -6   57.08   10.61
  16  10   6   65.35   13.53
 -16  10  -6   86.39   13.70
 -18 -10  -6   37.11    8.53
 -18 -10  -6    7.46   78.28
 -18  10  -6   45.42    9.52
  18  10   6   31.69    9.10
 -20 -10  -6   29.69    7.48
 -20  10  -6   35.15    9.04
  20  10   6   15.95    6.77
 -22 -10  -6   27.11    7.53
 -22  10  -6   29.47    8.46
  22  10   6   14.51    8.52
  19 -11  -6    7.11    4.76
 -19 -11   6    0.00    4.73
 -19 -11   6  -42.14  106.59
  19  11  -6    3.28    4.53
  19  11  -6   -1.47    3.72
 -17 -11   6   50.59  111.80
 -17 -11   6   18.39   90.40
  17 -11  -6    3.35    4.04
 -17 -11   6   -5.01    3.37
  17  11  -6    4.91    5.05
  17  11  -6    0.47    4.47
  15 -11  -6   15.22    5.95
 -15 -11   6  207.40   88.68
 -15 -11   6   14.00  103.94
 -15 -11   6    1.55    4.97
  15  11  -6   10.66    2.66
  15  11  -6    9.99    4.55
  15  11  -6   10.21    5.97
 -13 -11   6   40.58   74.01
 -13 -11   6    2.61    4.99
  13 -11  -6  -52.65   62.69
  13 -11  -6    4.67    4.08
 -13 -11   6  122.47   94.94
  13  11  -6    6.12    2.54
 -13  11   6   16.71   70.49
  13  11  -6    3.75    4.44
  13  11  -6    8.46    4.29
 -11 -11   6  -97.38   82.10
  11 -11  -6   46.85   56.82
 -11 -11   6  -44.59   61.97
  11 -11  -6   10.45    4.95
 -11 -11   6   10.80    6.25
 -11  11   6  -49.76   64.82
  11  11  -6    4.54    2.68
  11  11  -6   11.69    5.75
  11  11  -6    1.72    3.30
   9 -11  -6  -21.00   50.66
   9 -11  -6    9.27    5.25
  -9 -11   6  -47.12   72.44
  -9 -11   6   67.94   53.53
  -9 -11   6    8.57    6.14
   9  11  -6    2.40    2.68
   9  11  -6   19.75    4.63
  -7 -11   6    8.27   69.41
  -7 -11   6    5.81    5.62
   7 -11  -6   17.48    5.95
   7 -11  -6   35.55   53.35
  -7 -11   6   67.80   52.34
  -7  11   6    7.71   55.88
   7  11  -6   16.06    4.38
  -5 -11   6   67.36   73.63
   5 -11  -6  -32.20   51.83
   5 -11  -6    6.36    4.99
  -5 -11   6   35.49   47.92
   5  11  -6   15.18    4.33
  -5  11   6  114.88   60.37
   3 -11  -6   42.71   56.33
  -3 -11   6   33.73   57.67
   3 -11  -6   -0.38    3.28
  -3  11   6  -65.56   56.70
   3  11  -6    4.74    3.32
   1 -11  -6   37.92   58.54
   1 -11  -6   16.93    5.76
  -1 -11   6   21.54   58.07
  -1  11   6    0.17   59.65
   1  11  -6   15.38    4.43
  -1 -11  -6  -31.54   52.04
   1 -11   6   -6.35   50.29
  -1 -11  -6    4.45    4.60
   1  11   6   34.78   60.64
  -1  11  -6   11.23    4.25
  -3 -11  -6  -36.86   53.35
  -3 -11  -6    0.98    3.74
   3 -11   6  -35.04   53.04
   3  11   6    6.41    3.66
   3  11   6   67.20   63.23
  -3  11  -6    6.83    3.60
   5 -11   6   70.78   53.99
  -5 -11  -6    1.06    3.49
  -5 -11  -6 -107.46   54.85
   5  11   6  -63.97   64.06
  -5  11  -6    4.19    3.38
   5  11   6    6.25    5.11
   7 -11   6   56.70   53.23
  -7 -11  -6   11.44   62.77
  -7 -11  -6    3.09    3.82
   7  11   6    7.01    5.08
   7  11   6 -129.33   70.21
  -7  11  -6    8.21    4.13
  -9 -11  -6    0.50    4.18
   9 -11   6   79.15   49.88
  -9 -11  -6  -13.61   65.01
   9  11   6    3.15    4.96
  -9  11  -6    4.31    4.08
 -11 -11  -6   62.71   69.42
 -11 -11  -6   -1.43    2.93
  11 -11   6  -24.06   44.97
  11  11   6 -105.33   86.88
 -11  11  -6    0.73    3.10
  11  11   6    3.01    4.22
 -13 -11  -6  -22.57   76.24
 -13 -11  -6    2.55    4.03
  13 -11   6    1.30   39.51
  13  11   6    3.37    4.66
 -13  11  -6    4.25    4.26
 -15 -11  -6   12.57    6.30
  15  11   6    6.19    5.64
 -15  11  -6    1.69    3.43
 -17 -11  -6    8.18    5.88
  17  11   6    1.84    4.79
 -17  11  -6    2.10    4.01
 -19 -11  -6    1.86    3.84
 -19  11  -6   -0.11    3.77
  19  11   6    1.84    4.71
 -16 -12   6   39.18   11.03
  16 -12  -6   33.02    8.11
  16  12  -6   21.00    6.79
 -14 -12   6   29.33    9.27
  14 -12  -6   20.74    7.14
  14  12  -6   30.25    8.06
  12 -12  -6   44.15    9.23
 -12 -12   6   34.85   10.09
  12  12  -6   41.60    4.93
  10 -12  -6   62.85   11.62
 -10 -12   6   51.58   11.92
  10  12  -6   48.56    5.70
  -8 -12   6   42.26   91.59
   8 -12  -6   84.05   13.21
  -8 -12   6   72.24   14.05
   8  12  -6   60.27    6.87
  -8  12   6   15.35   72.80
   6 -12  -6  104.98   14.94
  -6 -12   6   87.77   15.80
   6 -12  -6   64.02   76.93
  -6 -12   6   36.86   84.98
  -6  12   6  -47.19   72.60
   6  12  -6   80.35    8.38
   4 -12  -6   67.97   12.13
  -4 -12   6   93.54   15.99
  -4 -12   6   66.47   87.69
   4 -12  -6  159.29   74.81
   4  12  -6   87.51    9.19
  -4  12   6  -38.79   73.03
  -2 -12   6   76.10   70.21
   2 -12  -6   48.64   70.70
   2 -12  -6  119.74   12.96
  -2 -12   6   49.85   11.71
  -2  12   6   86.62   78.80
   2  12  -6   97.13    9.90
   0 -12  -6  102.77   15.27
   0 -12   6   51.42   66.23
   0 -12   6  107.27   16.40
   0 -12  -6  136.47   76.78
   0  12  -6   88.93    9.92
   0  12   6   16.01   76.77
  -2 -12  -6   88.42   76.25
   2 -12   6  114.91   72.93
  -2 -12  -6   92.06   14.16
  -2  12  -6   90.78   10.32
   2  12   6   -0.59   79.09
   4 -12   6   -9.05   59.20
  -4 -12  -6   84.99   14.41
  -4 -12  -6   96.18   74.37
   4  12   6   -2.21   88.13
  -4  12  -6   72.67   10.77
   6 -12   6  -41.40   63.71
  -6 -12  -6   40.15   82.14
  -6 -12  -6   67.98   12.52
  -6  12  -6   63.01   10.36
   6  12   6   79.05   73.43
   6  12   6   92.50   15.22
  -8 -12  -6   55.76   11.53
  -8 -12  -6  -64.87   58.40
   8 -12   6   26.95   60.95
   8  12   6   71.87   14.04
  -8  12  -6   60.01   10.36
  10 -12   6   60.63   11.13
  10 -12   6   34.61   62.42
 -10 -12  -6   32.66   66.67
 -10 -12  -6   47.66   10.61
  10  12   6   46.10   11.14
  10  12   6   21.24  110.47
 -10  12  -6   64.37   11.27
  12 -12   6   53.99   10.44
 -12 -12  -6   27.01   94.98
 -12 -12  -6   36.39    9.35
  12 -12   6   20.37   57.71
  12  12   6   47.74   10.99
 -12  12  -6   53.41   10.71
  14 -12   6   39.78    8.79
 -14 -12  -6   24.73    7.78
  14  12   6   39.43   10.52
 -14  12  -6   25.87    7.78
  16 -12   6   23.90    7.17
 -16 -12  -6    7.03    5.62
 -16  12  -6   32.89    9.26
  16  12   6   31.52    9.98
 -11 -13   6    7.63    6.71
  11 -13  -6    3.83    4.83
  11  13  -6    0.31    2.01
  11  13  -6    0.52    1.83
  -9 -13   6    5.95    6.57
   9 -13  -6    4.60    4.79
   9  13  -6    4.75    3.08
   9  13  -6    1.05    1.89
   7 -13  -6    0.35    4.20
  -7 -13   6    4.88    4.74
   7  13  -6    2.86    2.98
   7  13  -6    0.03    1.27
  -5 -13   6   12.09    7.43
   5 -13  -6    6.30    5.51
   5  13  -6    7.29    3.94
  -3 -13   6   -0.86    4.05
   3 -13  -6    6.82    5.69
   3  13  -6    1.36    2.59
  -1 -13   6    5.58    5.55
   1 -13  -6    5.83    5.13
   1  13  -6    2.06    2.81
   1 -13   6   -1.71    3.45
  -1 -13  -6    2.09    4.64
  -1  13  -6   -1.36    2.40
   3 -13   6    1.84    4.20
  -3 -13  -6    2.36    4.38
  -3  13  -6    4.32    3.82
  -5 -13  -6    1.43    4.22
   5 -13   6    1.50    4.50
  -5  13  -6    2.23    3.75
  -7 -13  -6    7.96    5.61
   7 -13   6    2.93    4.68
  -7  13  -6    1.02    3.25
   7  13   6    1.93    4.52
   9 -13   6    1.57    4.45
  -9 -13  -6   -0.39    3.97
   9  13   6   -0.19    4.35
  -9  13  -6   -0.21    3.06
 -11 -13  -6    0.86    4.28
  11 -13   6    2.21    4.62
 -11  13  -6   -2.69    2.79
  11  13   6   -0.42    3.63
   2 -14  -6   50.95   11.27
  -2 -14   6   69.51   14.99
   2  14  -6   35.68    7.17
   0 -14   6   46.44   12.07
   0 -14  -6   53.62   11.43
   0  14  -6   52.00    9.01
   2 -14   6   38.64   10.52
  -2  14  -6   36.60    8.32
  32   0  -7    1.45    3.66
  32   0  -7   -0.68    2.51
  30   0  -7    2.11    3.29
  30   0  -7    2.23    4.49
  28   0  -7   12.14    4.19
 -28   0   7  -75.11   69.84
  28   0  -7  -13.23   50.44
 -28   0   7   -0.48    0.88
  28   0  -7   13.19    5.22
 -26   0   7  -81.81   48.74
 -26   0   7   -0.85    1.73
  26   0  -7   22.49   38.44
  26   0  -7   15.64    4.83
 -26   0   7   -0.17    1.39
  26   0  -7   14.96    5.59
  24   0  -7   13.17    4.26
 -24   0   7  -45.21   42.47
 -24   0   7   -0.03    1.41
  24   0  -7  -24.86   31.15
  24   0  -7   13.59    5.10
  22   0  -7   22.31   28.57
 -22   0   7    6.46    3.36
  22   0  -7    4.97    3.72
  22   0  -7    3.96    3.12
 -22   0   7   23.67   38.50
 -20   0   7   42.79    7.07
  20   0  -7   22.97    5.51
  20   0  -7   25.28   29.64
 -20   0   7   -3.45   31.52
  18   0  -7   40.70    6.72
  18   0  -7   39.57   26.63
 -18   0   7   48.27    7.20
 -18   0   7   29.57   30.78
 -16   0   7   61.45    6.83
  16   0  -7   76.88   27.95
 -16   0   7   11.40   24.38
  16   0  -7   62.47    6.73
  14   0  -7   10.55    3.42
 -14   0   7    9.85   21.67
  14   0  -7  -10.37   17.35
 -14   0   7    8.06    3.48
  12   0  -7   10.15    3.45
 -12   0   7   11.32    3.69
  12   0  -7    7.22   16.14
 -12   0   7  -21.63   19.32
 -10   0   7   19.85   23.90
 -10   0   7   69.10    6.86
  10   0  -7   57.39    6.11
  10   0  -7   67.09   24.03
  -8   0   7   39.19   23.76
   8   0  -7   52.00   18.15
  -8   0   7   37.72    6.11
   8   0  -7   41.63    6.16
   6   0  -7    1.95    1.84
   6   0  -7   -2.20   14.01
  -6   0   7   16.62   13.93
  -6   0   7    4.56    2.62
  -4   0   7   84.83   25.88
   4   0  -7   86.64   21.94
   4   0  -7   86.01    6.94
  -4   0   7   79.71    7.28
   4   0  -7   77.78    6.74
   2   0  -7   13.87   14.13
  -2   0   7   11.91    2.98
   2   0  -7    8.57    2.65
   2   0  -7   11.12    2.87
  -2   0   7    7.57   15.70
   0   0   7   18.92   18.31
   0   0  -7   35.96    4.07
   0   0  -7   38.21    5.71
   0   0   7   40.72    6.05
   0   0  -7   37.41   15.95
   2   0   7   15.85    3.81
  -2   0  -7    2.48   12.41
  -2   0  -7   11.90    2.86
   2   0   7   32.03   19.50
  -2   0  -7   15.70    3.48
  -4   0  -7   41.55    4.19
  -4   0  -7   41.15    4.84
   4   0   7   40.33   18.91
  -4   0  -7   19.64   15.27
   4   0   7   43.67    6.14
  -6   0  -7   10.21    2.95
   6   0   7   10.60    3.21
   6   0   7    7.17    2.40
  -6   0  -7   10.38    2.56
   6   0   7   14.46   14.92
  -6   0  -7   20.08   15.53
   8   0   7   21.12    4.09
  -8   0  -7   20.02    3.98
  -8   0  -7   20.30    3.23
   8   0   7   18.02    4.17
   8   0   7    6.06   14.63
  -8   0  -7   39.02   19.21
 -10   0  -7   27.64   16.33
  10   0   7   -9.23   15.39
  10   0   7   32.22    5.10
 -10   0  -7   27.98    2.97
 -10   0  -7   31.12    4.88
  10   0   7   29.17    5.17
 -12   0  -7    2.17    1.36
 -12   0  -7    1.14    2.21
  12   0   7    1.30    1.99
 -12   0  -7    0.77    0.90
 -12   0  -7    2.01    1.82
 -12   0  -7   17.12   17.26
  12   0   7   -3.61   15.58
  12   0   7    1.30    1.87
  14   0   7    9.15    3.26
  14   0   7    9.19    3.40
 -14   0  -7   14.10    4.19
 -14   0  -7   15.53    3.53
 -14   0  -7   17.89   17.15
 -16   0  -7    8.96   17.75
 -16   0  -7   18.26    4.56
 -16   0  -7   19.13    3.96
  16   0   7   14.11    4.33
  16   0   7   18.98    4.27
 -18   0  -7    0.23    1.95
 -18   0  -7    2.08   17.04
  18   0   7    8.88   21.66
  18   0   7    3.51    2.61
 -18   0  -7    0.42    1.78
 -20   0  -7   22.04   20.32
  20   0   7   35.75   26.68
 -20   0  -7   19.75    4.84
  20   0   7   16.92    5.19
 -22   0  -7   27.32   22.31
  22   0   7   18.66    5.75
 -22   0  -7   21.26    5.22
 -24   0  -7   12.29    4.13
  24   0   7    3.12    3.84
 -24   0  -7   16.68   24.66
 -26   0  -7    4.61    3.29
 -26   0  -7  -40.51   24.28
  26   0   7    2.07    3.75
  28   0   7   -1.50    2.98
 -28   0  -7    2.32    2.13
  30   0   7    3.26    4.46
 -30   0  -7    3.88    3.05
  31  -1  -7    1.44    3.06
  31  -1  -7    7.63    5.48
  31   1  -7    7.48    4.18
  31   1  -7    2.09    4.21
  29  -1  -7   15.01    5.52
  29  -1  -7   16.94    4.94
 -29  -1   7   -0.17    1.40
  29   1  -7    3.14    3.75
  29   1  -7    5.27    4.79
 -27  -1   7   66.40   67.82
  27  -1  -7   25.41    7.26
  27  -1  -7   -4.50   41.15
  27  -1  -7   26.85    5.66
  27   1  -7   28.04    5.97
 -27   1   7   36.99   58.12
  27   1  -7   19.69   44.91
  27   1  -7   18.79    6.37
  25  -1  -7   57.04   41.97
  25  -1  -7   52.31    8.19
  25  -1  -7   51.68    9.24
 -25  -1   7   55.18    8.76
  25   1  -7   54.56    9.98
 -25   1   7  -32.40   41.62
  25   1  -7   47.72    7.92
  25   1  -7   34.19   37.14
  23  -1  -7    5.98   30.54
 -23  -1   7   44.81   10.51
 -23  -1   7  -28.81   38.17
  23   1  -7   83.76   38.50
 -23   1   7   -0.84    1.18
 -23   1   7   -1.88   40.36
  21  -1  -7   35.30   29.22
  21  -1  -7   50.74    7.87
 -21  -1   7   27.33   35.90
  21   1  -7   48.56    7.65
 -21   1   7   47.44    6.97
  21   1  -7   55.13    8.81
  21   1  -7   11.99   29.26
 -19  -1   7  182.98   45.54
  19  -1  -7  160.67   11.69
  19  -1  -7  166.36   39.59
  19   1  -7  116.17   37.09
  19   1  -7  152.08   11.59
 -19   1   7  203.50   46.82
  19   1  -7  155.42   12.45
 -19   1   7  154.43   11.63
  17  -1  -7  210.97   14.05
 -17  -1   7  219.64   48.26
  17  -1  -7  216.04   42.92
  17   1  -7  250.43   44.95
 -17   1   7  326.30   53.70
 -17   1   7  205.33   14.25
  17   1  -7  224.85   14.48
 -15  -1   7  226.10   47.51
  15  -1  -7  266.30   15.99
 -15  -1   7  241.86   17.64
  15  -1  -7  304.64   47.49
  15   1  -7  251.50   45.35
  15   1  -7  290.64   16.40
 -15   1   7  315.58   51.00
 -15   1   7  227.76   15.71
  13  -1  -7  275.50   16.09
 -13  -1   7  292.57   49.19
 -13  -1   7  254.69   16.36
  13  -1  -7  236.30   40.49
  13   1  -7  288.67   46.03
 -13   1   7  238.23   45.92
  13   1  -7  264.00   15.87
 -13   1   7  275.75   16.66
  11  -1  -7  360.20   19.04
  11  -1  -7  232.67   39.11
 -11  -1   7  348.78   19.41
 -11  -1   7  424.53   51.80
 -11   1   7  314.24   19.02
  11   1  -7  325.82   18.43
 -11   1   7  346.95   52.33
  11   1  -7  340.56   42.91
  -9  -1   7  632.40   61.18
  -9  -1   7  567.70   29.11
   9  -1  -7  562.71   28.46
   9  -1  -7  567.61   53.92
  -9   1   7  663.60   62.39
   9   1  -7  586.19   28.40
   9   1  -7  593.41   54.83
  -9   1   7  539.22   29.04
   7  -1  -7  788.89   63.15
   7  -1  -7  729.04   35.37
  -7  -1   7  780.61   67.38
  -7  -1   7  726.79   35.98
   7   1  -7  809.07   61.59
  -7   1   7  725.48   36.32
  -7   1   7  689.41   65.30
   7   1  -7  780.55   35.35
  -5  -1   7  749.27   65.61
  -5  -1   7  767.61   37.02
   5  -1  -7  780.44   36.48
   5  -1  -7  783.06   36.94
   5  -1  -7  773.11   61.46
  -5   1   7  793.44   37.62
   5   1  -7  783.14   36.06
   5   1  -7  745.05   60.82
  -5   1   7  748.01   64.74
  -3  -1   7  698.30   34.39
  -3  -1   7  669.46   59.83
   3  -1  -7  729.11   34.58
   3  -1  -7  690.17   58.90
   3  -1  -7  742.07   34.10
   3   1  -7  761.85   33.62
  -3   1   7  684.20   34.76
   3   1  -7  699.16   33.13
   3   1  -7  731.37   58.03
  -3   1   7  738.72   62.12
   1  -1  -7  785.08   37.44
   1  -1  -7  726.91   60.02
  -1  -1   7  737.58   36.90
  -1  -1   7  873.21   67.30
   1   1  -7  806.76   36.03
  -1   1   7  830.59   38.12
   1   1  -7  669.80   56.43
  -1   1   7  777.89   65.89
   1   1  -7  823.84   36.11
  -1  -1  -7  943.70   42.47
   1  -1   7  951.82   70.75
   1  -1   7  935.08   43.11
  -1  -1  -7  839.18   66.90
   1   1   7  927.23   72.06
  -1   1  -7  934.89   41.99
  -1   1  -7  963.72   66.81
   1   1   7  938.97   43.83
   3  -1   7  823.97   65.79
   3  -1   7  893.35   40.84
  -3  -1  -7  874.77   41.67
  -3  -1  -7  937.11   40.24
  -3  -1  -7  968.94   69.36
  -3   1  -7  903.99   63.02
  -3   1  -7  764.08   39.25
   3   1   7  958.60   70.39
   3   1   7  878.06   41.61
  -5  -1  -7  748.20   35.31
  -5  -1  -7  751.95   33.13
   5  -1   7  738.25   60.02
   5  -1   7  714.27   33.86
  -5  -1  -7  793.54   60.97
   5   1   7  702.26   33.43
   5   1   7  669.30   34.42
  -5   1  -7  652.36   32.53
  -5   1  -7  690.95   54.25
   5   1   7  679.19   60.33
  -5   1  -7  726.23   32.05
  -7  -1  -7  511.51   26.77
   7  -1   7  488.85   25.37
   7  -1   7  546.96   23.99
   7  -1   7  495.24   47.48
  -7  -1  -7  524.11   49.32
  -7  -1  -7  509.75   24.45
  -7   1  -7  469.21   24.14
   7   1   7  567.37   52.24
  -7   1  -7  497.06   23.31
   7   1   7  496.08   26.38
   7   1   7  536.97   25.78
  -7   1  -7  580.99   47.53
  -9  -1  -7  462.80   49.26
   9  -1   7  546.58   25.44
   9  -1   7  543.01   50.71
  -9  -1  -7  550.48   25.37
   9  -1   7  511.44   26.55
  -9  -1  -7  529.45   27.86
  -9   1  -7  564.32   24.08
  -9   1  -7  554.10   27.74
  -9   1  -7  512.15   45.01
  -9   1  -7  551.03   25.54
   9   1   7  526.91   27.71
   9   1   7  528.49   51.49
   9   1   7  549.98   27.33
  11  -1   7  328.51   17.88
 -11  -1  -7  319.27   38.93
  11  -1   7  337.47   17.19
 -11  -1  -7  307.91   16.99
  11  -1   7  378.94   40.16
 -11  -1  -7  340.46   16.06
 -11  -1  -7  338.79   18.88
  11   1   7  270.04   17.94
 -11   1  -7  296.19   34.72
  11   1   7  296.60   45.59
 -11   1  -7  320.24   16.50
 -11   1  -7  321.62   18.78
 -11   1  -7  328.31   14.07
  11   1   7  333.82   18.76
 -11   1  -7  306.33   14.30
 -13  -1  -7  365.94   20.28
 -13  -1  -7  363.09   41.92
 -13  -1  -7  351.85   17.65
 -13  -1  -7  359.28   20.38
  13  -1   7  361.58   19.65
  13  -1   7  355.01   19.35
 -13  -1  -7  374.89   17.09
  13   1   7  345.13   20.63
  13   1   7  365.69   21.06
 -13   1  -7  323.53   36.55
  13   1   7  352.81   43.90
 -13   1  -7  367.45   18.37
 -13   1  -7  389.43   21.12
 -15  -1  -7  223.06   10.49
 -15  -1  -7  230.70   10.40
 -15  -1  -7  221.17   14.58
  15  -1   7  239.93   14.29
 -15  -1  -7  248.46   15.06
  15  -1   7  231.41   14.39
 -15  -1  -7  203.63   36.48
 -15   1  -7  216.68   12.73
  15   1   7  226.44   15.68
 -15   1  -7  194.63   30.40
 -15   1  -7  228.41   15.19
 -17  -1  -7  197.17   13.28
  17  -1   7  173.20   32.24
  17  -1   7  167.81   12.21
  17  -1   7  190.60   13.33
 -17  -1  -7  238.22   38.27
 -17  -1  -7  208.97   13.46
 -17   1  -7  218.16   31.47
  17   1   7  201.27   14.82
 -17   1  -7  188.20   11.51
 -17   1  -7  173.21   13.37
  19  -1   7  107.60   28.07
  19  -1   7  135.08   11.00
 -19  -1  -7  125.21   10.05
  19  -1   7  101.12    9.20
 -19  -1  -7  140.70   33.52
 -19   1  -7  125.19   10.70
  19   1   7  106.17   11.11
 -19   1  -7  137.01   24.64
  19   1   7  115.85   36.21
  21  -1   7   95.48    9.73
 -21  -1  -7   91.08    8.58
 -21  -1  -7   80.78   28.10
 -21   1  -7   84.03    9.04
  21   1   7  114.88   37.55
 -21   1  -7   73.18   21.59
  21   1   7   84.16   10.12
 -23  -1  -7   73.24    7.76
  23  -1   7   81.36    9.28
 -23   1  -7   71.17   20.55
 -23   1  -7   82.01   10.85
  23   1   7   91.45   13.31
 -23   1  -7   57.03   19.51
  25  -1   7   23.68    6.66
 -25  -1  -7   30.75    6.10
 -25  -1  -7   -5.39   29.77
 -25   1  -7   21.94   13.68
 -25   1  -7   30.74    6.42
  25   1   7   30.88    7.62
 -27  -1  -7   16.74    4.15
 -27  -1  -7   31.47   34.83
  27  -1   7   11.92    5.50
  27   1   7   13.61    5.47
 -27   1  -7   18.81    5.36
 -29  -1  -7   -0.58    1.15
 -29  -1  -7  -32.54   37.66
  29  -1   7   14.66    6.19
 -29   1  -7   13.03    4.59
  29   1   7    9.50    5.25
  31  -1   7    7.45    5.36
  31   1   7    6.07    5.31
 -31   1  -7    3.75    3.53
  32  -2  -7   -1.01    2.97
  32  -2  -7    4.51    3.77
  32   2  -7    5.74    5.24
  32   2  -7    1.61    3.37
  30  -2  -7    3.68    4.24
  30  -2  -7    3.69    3.78
 -30  -2   7    0.90    1.89
  30   2  -7    2.13    4.07
  30   2  -7    3.61    4.03
  28  -2  -7   15.47   52.64
 -28  -2   7   -0.86    1.93
  28  -2  -7    7.15    5.11
  28  -2  -7   11.47    4.03
 -28   2   7  -59.80   61.22
  28   2  -7    2.04    3.59
  28   2  -7    3.20    3.97
 -26  -2   7   18.50    5.64
 -26  -2   7  -48.99   54.70
  26  -2  -7   66.34   47.14
  26  -2  -7   25.06    6.99
  26  -2  -7   18.39    5.07
  26   2  -7   21.13    5.57
 -26   2   7  -18.83   54.85
  26   2  -7   16.29   42.62
  26   2  -7   10.54    4.57
  24  -2  -7   21.92    5.53
 -24  -2   7  -72.77   45.84
  24  -2  -7   95.47   39.34
 -24   2   7   69.90   43.97
  24   2  -7   -5.89   33.29
  24   2  -7   16.03    5.55
  24   2  -7   19.11    5.48
  22  -2  -7   16.63    4.65
 -22  -2   7   -4.93   37.79
  22  -2  -7   10.55   27.43
  22   2  -7   36.15   33.21
 -22   2   7   -0.57   35.73
  22   2  -7   21.96    5.46
  22   2  -7   17.53    5.45
  20  -2  -7   29.73    5.96
  20  -2  -7   51.90   29.74
 -20  -2   7   29.84   34.34
  20   2  -7   32.56    7.10
  20   2  -7   37.47    6.81
  20   2  -7   59.54   34.10
 -20   2   7   38.69    6.47
 -20   2   7   -5.50   33.29
 -18  -2   7  100.58   38.95
  18  -2  -7   73.11    7.47
  18  -2  -7   65.16   30.28
 -18   2   7  -17.78   32.15
 -18   2   7   74.74    7.35
  18   2  -7   97.16   35.22
  18   2  -7   56.26    8.36
  18   2  -7   64.62    7.08
 -16  -2   7   18.88   29.53
  16  -2  -7   65.47    6.93
  16  -2  -7   28.61   23.23
 -16   2   7   51.54   29.83
  16   2  -7   40.98   28.21
  16   2  -7   63.84    8.52
 -16   2   7   75.12    7.37
  16   2  -7   61.89    6.96
  14  -2  -7   28.21   21.84
 -14  -2   7   55.54   29.52
  14  -2  -7   41.45    6.55
 -14   2   7    8.11   22.90
 -14   2   7   54.93    7.84
  14   2  -7   57.57    7.75
  14   2  -7   14.73   17.65
  14   2  -7   36.52    5.88
 -12  -2   7   80.37   32.96
  12  -2  -7   30.22   21.51
  12  -2  -7   57.65    7.63
  12   2  -7   48.33   20.93
 -12   2   7   61.25    6.59
 -12   2   7   80.07   29.68
  12   2  -7   57.21    7.79
  10  -2  -7   92.29    8.36
 -10  -2   7   95.72   31.01
 -10  -2   7  103.17    8.71
  10  -2  -7  122.52   30.31
  10   2  -7  112.97   27.32
 -10   2   7  121.14    9.47
 -10   2   7   56.38   23.42
  10   2  -7  101.35    8.14
   8  -2  -7   98.06    8.60
  -8  -2   7  122.80    9.22
  -8  -2   7  122.40   32.57
   8  -2  -7  102.06   28.13
  -8   2   7  118.86    9.52
   8   2  -7  132.27   30.95
   8   2  -7  118.34    8.66
  -8   2   7   94.14   30.09
  -6  -2   7   47.99    5.39
   6  -2  -7   42.65    6.32
  -6  -2   7   65.33   21.93
   6  -2  -7   48.41    5.69
   6  -2  -7   56.11   21.74
  -6   2   7   49.19    7.65
   6   2  -7   35.38   18.34
  -6   2   7   51.47   22.46
   6   2  -7   49.77    6.47
   4  -2  -7   56.66    6.21
  -4  -2   7   69.15   23.46
   4  -2  -7   48.38    6.62
  -4  -2   7   52.21    5.46
   4  -2  -7    2.07   15.57
  -4   2   7   61.11    6.41
   4   2  -7   70.89   22.26
  -4   2   7   45.56   22.75
   4   2  -7   56.44    5.37
   2  -2  -7   50.59   21.88
   2  -2  -7   54.51    5.89
   2  -2  -7   67.02    6.71
  -2  -2   7   57.36    5.73
  -2  -2   7   97.16   27.74
   2   2  -7   59.77    5.43
   2   2  -7   29.34   16.71
  -2   2   7   62.36    8.37
  -2   2   7   72.74   26.14
   2   2  -7   54.84    4.76
   0  -2  -7   -4.62   14.22
   0  -2  -7    0.13    1.64
   0  -2   7   17.81   16.31
   0  -2  -7    3.16    2.13
   0  -2   7    2.79    2.06
   0   2   7    6.98    2.90
   0   2  -7    8.93    2.31
   0   2   7    6.43   16.04
   0   2  -7    6.14   11.41
   0   2  -7    7.34    2.41
  -2  -2  -7   24.93   19.65
  -2  -2  -7   50.67    7.91
   2  -2   7   44.32   18.78
  -2  -2  -7   33.29    5.23
   2  -2   7   48.85    4.90
  -2   2  -7   37.15    4.76
  -2   2  -7   29.08    3.32
  -2   2  -7   17.72   13.17
   2   2   7   59.44   23.33
   2   2   7   38.22    6.54
  -4  -2  -7   86.15    7.35
   4  -2   7   89.61    7.34
  -4  -2  -7  101.81    9.06
   4  -2   7   94.04   24.13
  -4  -2  -7  154.78   32.49
   4   2   7   95.68    8.48
   4   2   7   78.69   23.60
  -4   2  -7   96.18    6.47
  -4   2  -7  102.54   23.36
   4   2   7  101.92    8.22
  -4   2  -7   96.87    6.15
   6  -2   7   61.13   21.43
  -6  -2  -7   62.87    7.00
  -6  -2  -7   43.94    5.03
   6  -2   7   49.31    5.11
  -6  -2  -7   53.94   21.05
   6   2   7   61.25   22.84
  -6   2  -7   54.65    4.29
  -6   2  -7   49.04    3.79
   6   2   7   60.86    8.37
   6   2   7   52.12    5.93
  -6   2  -7   52.38   18.69
   8  -2   7   -5.21   11.91
   8  -2   7    0.19    1.42
  -8  -2  -7    2.04    1.94
  -8  -2  -7   -9.10   14.18
  -8  -2  -7   -0.06    2.03
   8   2   7    0.93    2.17
  -8   2  -7    2.22    2.11
   8   2   7    2.30    2.64
  -8   2  -7    9.48   12.01
  -8   2  -7    1.09    1.01
  -8   2  -7    1.59    1.20
   8   2   7   -1.30   15.37
 -10  -2  -7   88.77   26.74
 -10  -2  -7   66.29    5.72
  10  -2   7   58.55    5.65
  10  -2   7   58.32   20.30
  10  -2   7   60.93    4.64
 -10  -2  -7   75.85    7.73
 -10   2  -7   62.80    6.93
 -10   2  -7   54.32   17.82
  10   2   7   45.20    7.18
 -10   2  -7   55.73    4.10
  10   2   7   50.87    7.67
  10   2   7   33.70   21.44
  12  -2   7   31.31    4.89
 -12  -2  -7   35.59    6.82
 -12  -2  -7   25.78    4.66
 -12  -2  -7   27.15    4.35
  12  -2   7   22.91    3.81
 -12  -2  -7   25.31   20.22
 -12   2  -7   34.40    6.11
  12   2   7   39.51   23.59
 -12   2  -7   26.94    2.84
  12   2   7   25.10    5.83
 -12   2  -7   36.63   15.16
 -14  -2  -7   16.69    4.21
 -14  -2  -7   33.50   21.25
 -14  -2  -7   20.18    3.72
  14  -2   7   28.89   19.15
 -14  -2  -7   21.46    5.33
  14  -2   7   20.21    4.19
  14  -2   7   18.38    3.80
 -14  -2  -7   24.10    3.58
  14   2   7   10.44   21.57
 -14   2  -7    9.64   13.47
  14   2   7   19.79    5.31
 -14   2  -7   27.53    5.86
  16  -2   7   33.30   18.10
 -16  -2  -7   25.97    5.25
  16  -2   7   23.28    4.66
 -16  -2  -7    6.46   22.64
 -16  -2  -7   24.62    2.77
 -16  -2  -7   25.11    3.37
  16  -2   7   26.63    4.77
 -16   2  -7   19.86    4.94
  16   2   7   24.30    6.01
  16   2   7   27.31   26.16
 -16   2  -7   13.45   14.13
 -18  -2  -7    2.52    2.44
  18  -2   7    0.80    1.88
  18  -2   7   -4.05   17.55
  18  -2   7    2.12    2.42
 -18  -2  -7  -27.84   22.80
 -18   2  -7    1.16    2.46
  18   2   7    1.65    3.08
  18   2   7   -3.37   26.24
 -18   2  -7   12.69   12.86
  20  -2   7    2.42    2.86
 -20  -2  -7  -14.26   23.68
 -20  -2  -7   11.30    3.65
  20  -2   7    5.33    3.04
 -20   2  -7    7.16    3.62
 -20   2  -7   -1.28   12.56
  20   2   7   33.08   32.22
  20   2   7    4.98    3.97
 -22  -2  -7    3.75   28.00
  22  -2   7    3.89    3.50
  22  -2   7    5.31    3.24
 -22  -2  -7   15.38    3.97
 -22   2  -7   20.12   10.22
  22   2   7   11.69    5.13
 -22   2  -7   18.45    5.73
 -22   2  -7    9.71   10.39
  24  -2   7    7.99    4.36
 -24  -2  -7   12.40   34.85
 -24  -2  -7    8.57    3.13
  24   2   7   18.54    6.16
 -24   2  -7    2.52    3.28
  26  -2   7    2.57    3.85
 -26  -2  -7   33.68   40.52
 -26  -2  -7    2.81    2.54
 -26   2  -7    1.58    2.85
  26   2   7    4.02    4.21
  28  -2   7    1.36    3.31
 -28  -2  -7    0.44    1.06
 -28  -2  -7  -31.64   46.21
 -28   2  -7   -2.88    1.87
  28   2   7    2.07    3.94
 -30  -2  -7   -0.03    0.91
 -30  -2  -7   -5.58   66.31
  30  -2   7    5.69    4.71
 -30   2  -7   -0.96    2.71
  30   2   7    4.51    5.10
  31  -3  -7   10.07    4.30
  31  -3  -7    4.28    3.47
 -31  -3   7   -0.20    1.92
  31   3  -7   11.61    4.78
  31   3  -7    2.85    4.35
  29  -3  -7    1.85    4.13
  29  -3  -7   15.45    4.86
 -29  -3   7   -1.21    1.96
  29   3  -7   14.17    5.80
  29   3  -7    2.26    3.92
 -27  -3   7   26.15    6.51
  27  -3  -7  -45.98   48.00
  27  -3  -7   22.73    5.48
 -27  -3   7  -73.24   67.60
  27   3  -7   31.56   52.74
  27   3  -7   24.83    6.33
 -27   3   7    5.62   57.91
  27   3  -7   19.53    6.41
  25  -3  -7   -6.96   38.97
 -25  -3   7  -78.06   51.96
  25   3  -7    5.53   42.51
 -25   3   7   45.94   53.81
  25   3  -7   30.54    7.34
 -23  -3   7    6.38   44.67
  23  -3  -7   49.37    7.89
  23  -3  -7   45.94   38.96
  23   3  -7   75.07   42.81
 -23   3   7  -19.79   43.78
  23   3  -7   49.97    9.54
  23   3  -7   37.38    7.34
  21  -3  -7   86.05   37.44
  21  -3  -7   84.20    8.23
 -21  -3   7   33.18   39.95
  21   3  -7   50.75   35.89
  21   3  -7   62.35    9.95
 -21   3   7   -5.14   34.67
  21   3  -7   78.17    8.56
  19  -3  -7  106.01    9.59
 -19  -3   7  115.91   44.31
  19  -3  -7  106.53   33.74
  19   3  -7  125.60   10.40
  19   3  -7  114.56   10.65
  19   3  -7   60.65   36.21
 -19   3   7  116.60    9.29
 -19   3   7   26.38   35.30
  17  -3  -7  239.92   45.22
  17  -3  -7  159.38   11.99
 -17  -3   7   79.03   40.79
  17   3  -7  143.27   11.98
  17   3  -7  204.78   45.29
  17   3  -7  159.73   12.12
 -17   3   7  170.90   11.99
  15  -3  -7  251.23   43.38
  15  -3  -7  210.00   14.48
 -15  -3   7  210.44   47.40
  15   3  -7  235.46   14.83
 -15   3   7  267.15   49.90
  15   3  -7  205.03   45.11
 -15   3   7  223.47   14.65
  15   3  -7  215.98   14.56
  13  -3  -7  332.49   19.10
 -13  -3   7  292.83   52.54
  13  -3  -7  287.64   47.67
 -13   3   7  287.93   50.25
  13   3  -7  366.02   44.32
  13   3  -7  336.48   18.95
 -13   3   7  320.98   19.25
  13   3  -7  319.18   18.40
 -11  -3   7  668.09   64.50
  11  -3  -7  626.17   59.70
  11  -3  -7  640.59   31.93
 -11   3   7  620.30   32.27
 -11   3   7  611.94   64.46
  11   3  -7  641.56   30.67
  11   3  -7  626.54   31.31
  11   3  -7  636.44   60.12
   9  -3  -7  644.26   31.68
   9  -3  -7  611.89   58.76
  -9  -3   7  727.08   67.05
   9   3  -7  625.27   30.73
  -9   3   7  612.34   32.08
   9   3  -7  673.60   58.13
  -9   3   7  540.29   57.64
   9   3  -7  626.69   29.75
  -7  -3   7  689.91   61.12
   7  -3  -7  626.85   30.89
   7  -3  -7  609.32   58.15
  -7  -3   7  606.71   32.27
   7  -3  -7  578.24   31.23
   7   3  -7  628.30   28.59
   7   3  -7  615.33   29.85
  -7   3   7  603.69   31.43
   7   3  -7  561.74   54.10
  -7   3   7  653.19   61.20
   5  -3  -7  950.08   75.11
   5  -3  -7  927.48   44.27
   5  -3  -7  949.97   45.25
  -5  -3   7  922.01   74.33
  -5  -3   7  962.71   44.08
  -5   3   7  916.20   76.41
   5   3  -7  975.62   41.49
  -5   3   7  908.02   45.00
   5   3  -7  870.14   68.42
   5   3  -7  979.46   43.24
   3  -3  -7 1166.35   81.28
  -3  -3   7 1016.47   46.58
   3  -3  -7 1011.84   47.08
  -3  -3   7 1108.21   79.57
   3  -3  -7 1048.15   48.48
  -3   3   7  979.67   47.91
  -3   3   7  932.14   78.62
   3   3  -7  888.38   69.09
  -1  -3   7  956.55   44.75
  -1  -3   7  974.12   74.48
   1  -3  -7 1025.14   45.81
   1  -3  -7  944.00   46.77
   1  -3  -7  881.26   72.29
   1   3  -7  996.10   42.32
   1   3  -7  954.73   68.60
   1   3  -7  983.63   43.77
  -1   3   7  972.72   46.63
  -1   3   7 1072.03   80.83
   1  -3   7 1169.51   80.14
  -1  -3  -7 1157.76   50.97
  -1  -3  -7 1200.74   84.76
   1  -3   7 1000.57   49.43
  -1  -3  -7 1094.49   52.53
   1   3   7 1084.55   51.94
   1   3   7 1202.80   84.99
  -1   3  -7 1115.99   46.98
  -1   3  -7 1056.48   73.11
  -3  -3  -7  905.59   47.08
   3  -3   7  966.64   71.61
  -3  -3  -7  983.10   45.37
   3  -3   7  938.93   44.29
  -3  -3  -7  939.22   75.13
  -3   3  -7 1061.46   68.67
   3   3   7  974.17   46.86
   3   3   7 1052.28   46.30
  -3   3  -7  938.54   42.85
   3   3   7 1114.25   79.47
  -5  -3  -7 1155.54   81.87
   5  -3   7  997.04   45.56
   5  -3   7 1018.20   73.72
  -5  -3  -7 1032.68   49.35
  -5  -3  -7 1033.97   46.65
  -5   3  -7 1016.76   43.82
  -5   3  -7 1026.69   47.06
   5   3   7  936.69   77.36
   5   3   7  998.77   48.27
   5   3   7 1004.40   47.34
  -5   3  -7  858.67   64.07
   7  -3   7  918.87   68.83
  -7  -3  -7  993.56   76.97
  -7  -3  -7  917.71   48.39
   7  -3   7  981.65   45.00
  -7  -3  -7 1014.61   46.03
   7   3   7 1064.19   81.19
  -7   3  -7 1027.39   42.78
   7   3   7  989.47   50.22
  -7   3  -7 1032.90   67.11
   7   3   7 1039.02   47.59
   9  -3   7  750.49   36.08
  -9  -3  -7  794.17   37.01
  -9  -3  -7  759.52   67.54
   9  -3   7  740.97   59.86
  -9  -3  -7  766.98   39.92
  -9   3  -7  829.93   38.64
  -9   3  -7  772.87   55.16
   9   3   7  694.66   67.44
   9   3   7  832.58   39.39
 -11  -3  -7  587.32   30.70
 -11  -3  -7  578.22   32.60
  11  -3   7  619.39   26.50
 -11  -3  -7  632.39   29.88
  11  -3   7  593.79   29.16
 -11  -3  -7  536.49   58.10
  11   3   7  646.58   32.91
  11   3   7  572.81   60.45
 -11   3  -7  628.54   31.77
 -11   3  -7  699.32   48.72
  13  -3   7  416.43   19.41
 -13  -3  -7  433.39   21.43
 -13  -3  -7  379.66   21.68
  13  -3   7  499.72   43.01
  13  -3   7  415.68   21.14
 -13  -3  -7  496.95   54.34
 -13   3  -7  393.29   36.23
 -13   3  -7  428.09   23.93
  13   3   7  387.34   60.52
  13   3   7  387.17   24.37
  15  -3   7  293.25   15.72
 -15  -3  -7  260.06   15.29
 -15  -3  -7  301.00   50.94
 -15  -3  -7  294.36   16.69
  15  -3   7  268.45   32.72
 -15  -3  -7  301.17   15.44
  15  -3   7  276.93   14.83
 -15   3  -7  292.50   18.39
  15   3   7  268.14   19.26
 -15   3  -7  236.70   27.18
  17  -3   7  154.42   10.07
 -17  -3  -7  137.05   37.61
 -17  -3  -7  150.05    9.01
 -17  -3  -7  145.67    9.02
  17  -3   7  101.89   22.35
  17  -3   7  141.13    9.77
 -17  -3  -7  167.22   11.04
  17   3   7  157.79   44.82
  17   3   7  160.39   13.94
 -17   3  -7  144.08   12.34
 -17   3  -7   99.25   18.96
 -19  -3  -7  101.66    6.12
 -19  -3  -7   60.28   36.39
  19  -3   7  111.52    8.80
  19  -3   7  106.74    8.30
 -19  -3  -7  105.41    8.70
  19   3   7  114.63   12.13
  19   3   7   87.61   40.37
 -19   3  -7   98.14   15.02
 -19   3  -7  113.87   10.76
  21  -3   7   94.12    8.53
 -21  -3  -7   65.81   34.25
 -21  -3  -7   95.41    7.84
  21  -3   7   72.90    7.26
  21   3   7  100.64   14.57
  21   3   7   58.48   44.40
 -21   3  -7   89.69    9.91
  23  -3   7   53.19    7.51
 -23  -3  -7   49.41    5.74
  23  -3   7   61.04    9.19
 -23   3  -7   49.67    8.94
  23   3   7   54.67   10.92
  25  -3   7   32.31    6.63
 -25  -3  -7  -14.55   41.91
  25   3   7   35.89    9.60
 -25   3  -7   20.72    5.86
  27  -3   7   20.03    5.42
 -27  -3  -7 -102.80   48.44
 -27  -3  -7    0.26    0.82
 -27   3  -7   21.30    5.74
  27   3   7   24.44    8.07
  29  -3   7   15.63    5.46
  29   3   7    8.27    7.10
 -29   3  -7   23.34    5.97
  30  -4  -7    5.26    4.02
  30  -4  -7    1.35    4.21
 -30  -4   7   -1.31    1.90
  30   4  -7    2.90    4.06
  30   4  -7    4.36    4.82
  28  -4  -7    7.27    3.92
 -28  -4   7    3.32    4.43
  28   4  -7   -0.67    3.22
  28   4  -7    4.69    4.65
 -26  -4   7    3.16    4.64
  26  -4  -7   10.68    4.44
 -26  -4   7  -83.21   74.12
  26  -4  -7   53.57   46.74
 -26   4   7  -11.50   57.30
  26   4  -7   -9.19   52.43
  26   4  -7   15.95    5.39
  26   4  -7   10.02    4.78
 -24  -4   7  -29.33   53.52
  24  -4  -7   13.40   39.78
 -24  -4   7    7.45    5.24
  24  -4  -7   12.00    4.03
  24   4  -7   21.58   45.12
  24   4  -7   17.45    5.32
  24   4  -7   14.50    5.09
 -24   4   7   52.77   43.58
  22  -4  -7   15.84    4.73
  22  -4  -7   52.11   37.29
 -22  -4   7  -48.72   46.85
  22   4  -7    9.16    4.83
  22   4  -7   14.90    4.96
 -22   4   7  -25.34   34.56
  22   4  -7   36.84   38.82
 -20  -4   7   10.03   41.01
  20  -4  -7   14.56    4.64
  20  -4  -7  -15.44   28.27
  20   4  -7   11.18    4.65
  20   4  -7  -39.33   31.23
 -20   4   7    8.14   32.20
  20   4  -7    5.02    3.76
 -20   4   7    0.32    1.36
  18  -4  -7    1.33   24.75
 -18  -4   7  -20.81   35.71
  18  -4  -7   21.88    5.39
  18   4  -7   20.76    5.45
  18   4  -7   41.55   30.78
  18   4  -7   24.57    5.97
 -18   4   7  -36.18   30.72
 -16  -4   7   24.31   30.68
  16  -4  -7    4.35    3.10
  16  -4  -7    6.42   21.86
  16   4  -7    8.03    3.44
  16   4  -7    9.92    3.80
  16   4  -7   -6.78   18.00
 -16   4   7    9.60    3.44
  14  -4  -7   19.78   22.16
 -14  -4   7   15.65   29.87
  14  -4  -7    5.35    3.22
  14   4  -7   13.53    4.36
  14   4  -7   11.70    3.92
  14   4  -7    3.78   22.29
 -14   4   7   15.55    4.29
 -14   4   7   10.72   27.93
 -12  -4   7  -21.06   23.62
  12  -4  -7   24.29    5.20
  12  -4  -7    7.02   20.79
  12   4  -7   19.29    4.62
 -12   4   7   28.39    5.91
  12   4  -7   30.36    5.63
 -12   4   7   28.49   22.18
  12   4  -7    4.49   22.20
 -10  -4   7   22.43   21.77
  10  -4  -7   15.05    4.35
  10  -4  -7   17.51   17.76
  10   4  -7   22.59    4.50
  10   4  -7   37.23   22.83
  10   4  -7   17.72    4.42
 -10   4   7   28.07    5.99
 -10   4   7  -12.29   21.08
  -8  -4   7    6.72   22.11
   8  -4  -7   -4.47   18.89
   8  -4  -7   24.54    5.33
   8   4  -7   27.98   22.83
  -8   4   7   30.78    5.88
   8   4  -7   33.27    4.98
   8   4  -7   24.98    4.84
  -8   4   7    3.64   14.32
  -6  -4   7   -2.07   14.29
   6  -4  -7    9.58   19.47
   6  -4  -7   -1.68    1.50
  -6   4   7    2.09    2.25
  -6   4   7  -12.15   18.35
   6   4  -7    2.41    2.19
   6   4  -7    0.59    1.25
   6   4  -7  -10.57   14.84
  -4  -4   7   13.96   18.28
   4  -4  -7   21.03   21.43
   4  -4  -7   17.87    4.66
   4  -4  -7    9.21    3.18
  -4   4   7  -11.79   18.99
   4   4  -7    8.29    2.17
   4   4  -7    3.61    2.24
  -4   4   7   14.39    4.10
   4   4  -7    8.70   15.49
  -2  -4   7   42.84   19.20
   2  -4  -7   19.11   16.77
   2  -4  -7   33.18    6.69
   2  -4  -7   44.80    7.24
  -2  -4   7   37.43    5.76
   2   4  -7   40.82   20.09
   2   4  -7   34.47    3.00
  -2   4   7   35.91    6.83
  -2   4   7   82.14   27.97
   2   4  -7   33.02    5.07
   0  -4  -7    3.75    2.86
   0  -4   7    5.46   15.69
   0  -4  -7    6.52   19.07
   0  -4   7    2.17    2.01
   0  -4  -7    1.59    2.16
   0   4   7   12.41    4.06
   0   4  -7   10.48    1.56
   0   4   7   20.36   20.74
   0   4  -7   10.51    1.42
   0   4  -7   10.79    2.86
   0   4  -7   10.48    3.29
   0   4  -7    7.47   13.16
   2  -4   7    6.39    2.40
  -2  -4  -7    2.41    2.37
  -2  -4  -7    1.98   19.36
   2  -4   7   16.22   15.79
  -2  -4  -7    3.57    3.32
   2   4   7    5.23   14.13
   2   4   7   -0.70    1.77
  -2   4  -7    0.85    1.54
  -2   4  -7    4.86   11.88
  -2   4  -7    1.56    1.86
  -4  -4  -7   50.82    7.42
  -4  -4  -7   38.70   19.36
   4  -4   7   29.43   20.47
   4  -4   7   43.23    4.59
  -4  -4  -7   37.95    7.46
  -4   4  -7   35.87    5.92
   4   4   7   35.77   23.75
   4   4   7   52.19    7.95
  -4   4  -7   39.26    4.01
  -4   4  -7   16.21   14.67
  -6  -4  -7   28.11   21.10
  -6  -4  -7   14.50    5.02
  -6  -4  -7    9.05    3.41
   6  -4   7    6.31    2.30
   6  -4   7   -0.92   14.40
   6   4   7    8.97   19.74
  -6   4  -7    7.92   11.55
   6   4   7   14.53    4.53
  -6   4  -7   13.66    2.54
  -6   4  -7   10.99    3.55
   8  -4   7   30.99    4.58
  -8  -4  -7   31.24    5.83
  -8  -4  -7   27.66    7.30
  -8  -4  -7   35.59   23.35
   8   4   7   -6.02   14.80
  -8   4  -7   19.17    4.69
   8   4   7   13.44    4.57
  -8   4  -7   24.55   15.74
 -10  -4  -7   70.80    7.40
 -10  -4  -7  114.14   33.36
  10  -4   7   64.78    5.70
 -10  -4  -7   65.42    8.51
  10   4   7   65.28   29.41
 -10   4  -7   34.08   15.33
 -10   4  -7   64.84    7.58
  10   4   7   55.93    9.17
 -12  -4  -7   11.41    3.59
 -12  -4  -7   15.29    4.24
  12  -4   7   10.56    2.86
  12  -4   7   -9.13   15.02
 -12  -4  -7    2.40   22.00
 -12   4  -7   10.00   12.29
  12   4   7   14.91    5.47
  12   4   7    0.66   24.72
 -12   4  -7    8.64    3.99
 -14  -4  -7    8.03    3.33
  14  -4   7   11.82    3.05
  14  -4   7    2.70   15.01
  14  -4   7   12.17    1.65
 -14  -4  -7   -0.46   22.96
 -14  -4  -7   10.33    3.57
 -14   4  -7    9.86   11.92
  14   4   7    5.34    3.86
 -14   4  -7    7.79    3.86
 -16  -4  -7    3.99    2.62
 -16  -4  -7   11.71    3.41
 -16  -4  -7    9.21    2.84
  16  -4   7    8.35    2.79
  16  -4   7   -6.34   13.47
  16  -4   7    7.04    1.88
 -16  -4  -7    1.15   29.16
 -16   4  -7    8.41    4.01
  16   4   7    4.57   29.02
  16   4   7   12.06    4.91
 -16   4  -7    3.62   11.27
  18  -4   7   17.29    3.67
 -18  -4  -7   17.13    3.54
 -18  -4  -7   17.33    4.04
 -18  -4  -7   42.67   30.66
  18  -4   7   17.44    3.25
 -18  -4  -7   14.13    3.25
 -18   4  -7   19.63    5.68
  18   4   7  -12.17   36.32
  18   4   7   14.88    5.68
 -18   4  -7   11.63    6.60
 -20  -4  -7    5.44   37.78
 -20  -4  -7    7.99    2.34
 -20  -4  -7   10.41    2.96
  20  -4   7   10.41    3.36
  20  -4   7   12.94    3.24
  20   4   7    4.38    4.19
  20   4   7   35.24   44.30
 -20   4  -7    1.64    2.92
  22  -4   7   12.69    3.60
 -22  -4  -7    9.59    2.94
  22  -4   7    9.35    3.53
  22   4   7   12.44    5.33
 -22   4  -7    6.77    4.26
  24  -4   7   13.30    4.49
 -24  -4  -7   37.54   48.06
 -24   4  -7    5.33    4.20
  24   4   7    1.00    3.76
 -26  -4  -7    0.02    0.70
  26  -4   7    2.97    3.42
 -26  -4  -7  -29.69   49.75
 -26   4  -7    2.29    3.65
  26   4   7    2.74    4.16
  28  -4   7   10.34    4.38
 -28  -4  -7    0.73    1.04
 -28   4  -7    4.85    4.49
  28   4   7    0.11    4.29
  30  -4   7    1.61    3.75
 -30   4  -7    1.10    3.43
  30   4   7   -0.12    3.71
  29  -5  -7    6.50    4.16
 -29  -5   7    6.32    5.38
  29   5  -7   20.65    6.69
  29   5  -7    2.15    4.33
 -27  -5   7    9.43    6.31
  27  -5  -7   20.74    5.48
  27   5  -7    5.95    5.13
 -27   5   7  -73.82   71.48
  27   5  -7    7.62    4.80
  25  -5  -7   28.34    6.44
 -25  -5   7   22.26    7.42
 -25  -5   7  -16.28   68.96
  25  -5  -7    6.52   44.78
  25   5  -7   16.26    6.07
  25   5  -7   27.16    6.59
  25   5  -7  -11.48   51.92
 -25   5   7    4.25   56.31
 -23  -5   7   34.16    8.50
  23  -5  -7   32.40   42.10
 -23  -5   7  -11.88   57.88
  23  -5  -7   36.14    7.06
  23   5  -7   32.88    7.27
 -23   5   7    4.85   42.62
  23   5  -7   37.50    8.92
  23   5  -7   17.69   44.89
 -21  -5   7  -10.41   50.05
  21  -5  -7   46.17   33.85
  21  -5  -7   48.63    7.72
 -21   5   7   -4.34   36.80
  21   5  -7   47.49    8.09
  21   5  -7   54.17    9.40
  21   5  -7  112.37   46.49
 -19  -5   7    2.87   41.51
  19  -5  -7  107.43   40.05
  19   5  -7   30.07   37.77
 -19   5   7  -15.29   33.22
  17  -5  -7   85.74    8.67
  17  -5  -7   52.19   32.84
 -17  -5   7   91.16   44.23
 -17   5   7   17.90   30.22
 -17   5   7   78.22    7.67
  17   5  -7   78.66    8.71
  17   5  -7   63.46   35.80
  17   5  -7   74.93    8.74
 -15  -5   7  218.35   50.73
  15  -5  -7  128.37   36.15
  15  -5  -7  122.79   10.64
  15   5  -7   43.35   30.53
 -15   5   7  131.09   10.25
  15   5  -7  119.23   10.54
  15   5  -7  117.88   10.62
 -13  -5   7  198.59   47.39
  13  -5  -7  124.33   35.18
  13  -5  -7  178.97   13.39
  13   5  -7  166.13   38.66
 -13   5   7  177.13   13.05
  13   5  -7  173.28   12.74
 -13   5   7  190.25   44.39
  13   5  -7  196.07   13.40
  11  -5  -7  272.41   46.63
  11  -5  -7  247.58   16.18
 -11  -5   7  208.65   45.16
 -11   5   7  234.83   15.82
  11   5  -7  225.02   15.15
  11   5  -7  233.85   14.77
 -11   5   7  252.00   48.65
  11   5  -7  234.69   43.94
   9  -5  -7  266.39   17.15
   9  -5  -7  244.11   45.84
  -9  -5   7  288.99   51.13
   9   5  -7  251.91   16.03
  -9   5   7  259.51   16.99
   9   5  -7  277.42   15.50
  -9   5   7  230.50   44.03
   9   5  -7  232.18   41.17
   7  -5  -7  258.66   16.31
   7  -5  -7  209.99   40.72
  -7  -5   7  231.81   44.71
  -7   5   7  289.94   50.81
   7   5  -7  247.19   15.03
   7   5  -7  260.83   43.98
   7   5  -7  219.81   13.44
  -7   5   7  241.25   16.18
   5  -5  -7  311.14   19.21
  -5  -5   7  317.11   49.70
   5  -5  -7  323.26   52.50
  -5   5   7  301.56   19.51
   5   5  -7  310.18   16.16
   5   5  -7  335.22   18.10
  -5   5   7  277.42   47.28
   5   5  -7  347.78   43.43
   3  -5  -7  485.21   56.87
   3  -5  -7  503.93   26.54
  -3  -5   7  486.89   52.76
  -3   5   7  501.95   58.11
   3   5  -7  434.96   21.86
   3   5  -7  465.81   49.46
   3   5  -7  471.85   24.29
   3   5  -7  515.93   25.14
   1  -5  -7  676.62   33.28
   1  -5  -7  623.21   63.49
  -1  -5   7  722.50   62.91
   1   5  -7  624.35   26.90
   1   5  -7  642.89   30.67
   1   5  -7  694.55   32.07
   1   5  -7  607.91   27.06
   1   5  -7  610.29   55.59
  -1   5   7  516.91   58.77
   1  -5   7  418.26   47.30
  -1  -5  -7  400.17   52.53
  -1  -5  -7  444.59   24.88
  -1   5  -7  421.14   43.95
   1   5   7  446.81   52.65
  -1   5  -7  463.24   22.53
  -1   5  -7  456.01   24.08
   3  -5   7  296.41   16.85
  -3  -5  -7  268.42   48.47
   3  -5   7  296.53   38.60
  -3  -5  -7  296.13   18.71
  -3   5  -7  313.88   16.31
   3   5   7  365.74   56.44
   3   5   7  331.00   19.97
  -3   5  -7  304.64   36.24
  -3   5  -7  315.14   18.39
   5  -5   7  344.38   42.16
   5  -5   7  335.85   18.76
  -5  -5  -7  392.41   58.76
  -5  -5  -7  350.82   20.92
  -5   5  -7  378.86   17.85
  -5   5  -7  390.23   21.19
   5   5   7  345.55   56.30
   5   5   7  361.81   22.06
  -5   5  -7  288.60   37.29
  -7  -5  -7  467.16   58.08
  -7  -5  -7  436.10   25.05
   7   5   7  439.03   26.23
  -7   5  -7  482.39   25.61
  -7   5  -7  488.73   43.25
   7   5   7  453.96   59.31
  -9  -5  -7  313.24   54.44
   9  -5   7  304.17   16.20
  -9  -5  -7  312.11   18.64
  -9   5  -7  283.23   18.44
   9   5   7  275.42   52.80
   9   5   7  289.97   19.85
  -9   5  -7  312.75   32.99
 -11  -5  -7  277.02   17.00
  11  -5   7  239.92   14.27
  11  -5   7  219.08   34.58
 -11  -5  -7  342.28   56.48
  11   5   7  271.70   19.08
  11   5   7  275.22   53.05
 -11   5  -7  260.36   30.64
 -11   5  -7  275.46   17.67
  13  -5   7  127.75   27.13
 -13  -5  -7  259.60   49.05
 -13  -5  -7  223.83   15.93
  13  -5   7  213.04   12.25
 -13  -5  -7  209.35   14.22
 -13   5  -7  217.84   15.57
 -13   5  -7  182.19   25.71
  13   5   7  209.43   16.77
 -15  -5  -7  154.05   11.75
  15  -5   7  170.18   10.45
  15  -5   7  121.73   22.10
 -15  -5  -7  177.53   12.29
 -15  -5  -7  183.17   46.23
 -15   5  -7  194.92   23.28
  15   5   7  175.70   15.45
 -15   5  -7  158.00   13.48
  15   5   7  180.18   46.74
 -17  -5  -7  141.55    9.45
 -17  -5  -7  148.42   47.16
 -17  -5  -7  116.43    9.62
 -17  -5  -7  112.16    9.38
  17  -5   7  129.26    8.67
 -17   5  -7  117.38   11.66
  17   5   7  115.25   12.83
  17   5   7   91.25   44.38
 -19  -5  -7   78.03    6.84
 -19  -5  -7  120.23   46.28
  19  -5   7   87.20    5.82
  19  -5   7   92.16    7.07
 -19  -5  -7   77.13    7.35
 -19   5  -7   93.25   10.34
  19   5   7   78.92   45.81
  19   5   7   88.76   14.06
  21  -5   7   82.82    6.48
  21  -5   7   73.67    6.54
 -21  -5  -7   82.61    6.71
 -21   5  -7   70.39   10.74
  21   5   7   74.96   12.72
  23  -5   7   39.43    5.81
 -23   5  -7   42.11    8.75
  23   5   7   42.15   10.55
 -25  -5  -7  -10.41   60.69
  25  -5   7   28.93    5.63
  25   5   7   39.63   10.09
 -25   5  -7   36.26    7.90
  27  -5   7   15.86    4.90
 -27   5  -7   16.34    5.70
  27   5   7   10.32    6.54
  29   5   7    3.11    5.17
 -29   5  -7   10.28    5.34
  28  -6  -7    8.28    4.32
 -28  -6   7   -0.55    4.09
  28   6  -7    6.29    4.99
  28   6  -7   -2.46    3.08
  26  -6  -7    4.84    3.65
 -26  -6   7    0.98    4.57
  26   6  -7    2.35    4.20
  26   6  -7    6.99    4.74
  24  -6  -7   11.63   51.26
 -24  -6   7    7.64    5.79
 -24  -6   7   -6.96   57.39
  24  -6  -7    8.31    3.77
  24   6  -7    9.95    5.51
 -24   6   7  -12.28   54.90
  24   6  -7  -39.11   53.09
  24   6  -7    7.31    4.67
  22  -6  -7   14.84    4.56
 -22  -6   7   16.41    6.91
 -22  -6   7   74.34   61.26
  22  -6  -7   29.86   39.80
  22   6  -7   21.32    3.83
  22   6  -7   66.24   50.14
  22   6  -7   19.52    5.70
 -22   6   7   27.86   49.59
  22   6  -7   27.95    6.80
  20  -6  -7   -7.80   38.37
 -20  -6   7  -72.80   52.08
  20  -6  -7   21.98    5.82
 -20   6   7  -30.10   40.93
  20   6  -7    8.91   39.33
  20   6  -7   11.11    4.53
  20   6  -7   12.84    3.27
  20   6  -7   13.12    5.15
 -18  -6   7   12.95   46.68
  18  -6  -7   25.96    6.22
  18  -6  -7    7.15   34.70
 -18   6   7   16.37   35.73
  18   6  -7   17.70    5.46
  18   6  -7    0.13   36.20
  18   6  -7   23.31    4.15
  18   6  -7   23.63    6.69
  16  -6  -7   42.83   33.44
  16  -6  -7   16.65    5.13
 -16  -6   7   53.92   35.58
  16   6  -7   26.51    6.11
 -16   6   7   23.42    4.85
 -16   6   7  -13.79   30.14
  16   6  -7    4.11   31.21
  16   6  -7   21.03    4.02
  16   6  -7   25.37    6.00
  14  -6  -7   34.65    6.92
  14  -6  -7   22.06   27.64
 -14  -6   7  -30.71   32.71
  14   6  -7   75.76   34.24
  14   6  -7   22.78    4.38
  14   6  -7   28.85    6.37
  14   6  -7   26.10    6.06
 -14   6   7   27.58    5.84
  12  -6  -7   71.50   34.14
 -12  -6   7   42.93   33.50
  12  -6  -7   54.32    8.68
  12   6  -7   47.75    5.45
 -12   6   7   -2.26   27.12
  12   6  -7   45.29    7.28
  12   6  -7   47.33    7.54
 -12   6   7   66.68    7.27
  12   6  -7   68.48   27.50
  10  -6  -7   60.72   32.55
 -10  -6   7   41.92   31.41
  10  -6  -7   59.26    9.00
  10   6  -7  108.61   34.26
 -10   6   7   61.48    8.96
 -10   6   7   54.08   29.27
  10   6  -7   56.15    7.90
  10   6  -7   50.88    7.15
  10   6  -7   45.94    7.67
   8  -6  -7   15.48   26.28
  -8  -6   7    1.00   19.24
   8  -6  -7   14.74    4.59
   8   6  -7   17.87    3.98
  -8   6   7   19.22   27.28
   8   6  -7   13.87   21.12
  -8   6   7   21.91    5.35
   8   6  -7   21.92    4.70
   8   6  -7   12.99    3.91
  -6  -6   7  -27.69   23.50
   6  -6  -7   14.46    4.60
   6  -6  -7   12.41   26.22
   6   6  -7   20.87    4.67
   6   6  -7   -7.26   18.25
   6   6  -7   16.42    3.46
   6   6  -7   10.19    3.18
  -6   6   7   28.74   25.21
   4  -6  -7   86.84   11.33
  -4  -6   7   88.65   30.77
   4  -6  -7   68.65   31.02
  -4   6   7   61.78   31.37
   4   6  -7   72.26   27.64
   4   6  -7   78.83    7.50
   4   6  -7   73.28    5.82
   4   6  -7   82.50    7.61
   2  -6  -7  142.67   11.58
  -2  -6   7  127.37   33.39
   2  -6  -7   57.28   32.57
   2   6  -7  116.24    9.45
   2   6  -7  115.43    9.19
  -2   6   7   95.36   35.04
   2   6  -7  111.94    6.30
   2   6  -7   88.98   26.93
   0  -6  -7   42.69    7.73
   0  -6   7   23.87   20.62
   0  -6  -7   49.17   24.72
   0   6  -7   20.69   17.50
   0   6  -7   40.58    6.99
   0   6  -7   46.36    6.59
   0   6   7   45.65   25.61
  -2  -6  -7    9.95   26.30
  -2  -6  -7   18.66    5.53
   2  -6   7   17.49   18.95
   2   6   7   60.40   29.50
  -2   6  -7   39.02    5.48
  -2   6  -7   29.73    5.62
  -2   6  -7   39.17   19.18
   2   6   7   44.96    8.08
   4  -6   7   28.22   22.94
  -4  -6  -7   40.07   22.69
  -4  -6  -7   26.14    6.13
  -4   6  -7   26.63    5.77
   4   6   7   35.81   24.52
  -4   6  -7   21.77   16.49
  -4   6  -7   32.82    4.71
   4   6   7   24.64    6.38
   6  -6   7    9.05    3.50
  -6  -6  -7  -19.85   18.29
  -6  -6  -7   12.40    4.50
   6   6   7    6.54    4.38
  -6   6  -7    6.95    3.44
  -6   6  -7    8.50   15.25
   6   6   7  -39.33   24.73
   8  -6   7   24.58    4.43
  -8  -6  -7   43.89   29.65
  -8  -6  -7   20.87    5.45
   8   6   7  -16.75   28.92
  -8   6  -7   33.27    6.98
   8   6   7   34.43    7.47
  -8   6  -7    5.51   14.92
  10  -6   7   11.20    2.94
 -10  -6  -7   18.33    5.52
  10  -6   7   42.25   21.36
 -10  -6  -7  -15.98   19.63
  10   6   7    6.65    4.79
 -10   6  -7    6.26    3.62
 -10   6  -7    3.69   13.84
  10   6   7   22.16   32.04
 -12  -6  -7    3.70    3.38
  12  -6   7    4.63    2.30
 -12  -6  -7    5.54   23.06
  12  -6   7    5.57   18.75
  12   6   7    5.91    4.14
  12   6   7   10.60   24.88
 -12   6  -7    9.63    4.07
 -12   6  -7   -5.85   14.30
  14  -6   7   39.45   18.45
 -14  -6  -7    5.40   33.37
 -14  -6  -7   13.29    4.47
  14  -6   7   16.94    3.57
  14   6   7   11.18    5.40
 -14   6  -7    7.37    3.71
  14   6   7   60.30   38.33
 -16  -6  -7   12.97    3.15
 -16  -6  -7   25.26   35.74
  16  -6   7   16.59    9.18
  16  -6   7    6.15    8.55
  16  -6   7   12.28    3.00
 -16  -6  -7    7.32    3.48
 -16   6  -7   16.57    5.78
  16   6   7   55.79   43.60
  16   6   7    6.52    4.94
 -18  -6  -7   20.68    3.84
  18  -6   7   20.48    3.90
 -18  -6  -7   16.81    4.80
 -18  -6  -7  -40.54   38.52
 -18   6  -7   21.09    6.30
  18   6   7   16.16   54.49
  18   6   7    8.17    5.63
  20  -6   7   16.36    3.62
 -20  -6  -7   17.69    4.49
 -20   6  -7   16.20    5.78
  20   6   7   10.76    6.19
 -22  -6  -7    6.39    2.96
  22  -6   7   10.78    2.30
  22   6   7   15.84    6.47
 -22   6  -7   12.29    5.24
  24  -6   7    4.63    2.35
 -24   6  -7    5.52    4.23
  24   6   7    4.53    5.35
  26   6   7    8.36    5.20
 -26   6  -7    7.22    4.75
  28   6   7    3.55    5.15
 -28   6  -7    4.01    4.82
 -27  -7   7    6.80    6.41
  27  -7  -7    7.41    4.03
  27   7  -7    3.13    4.71
  27   7  -7   18.22    6.61
 -25  -7   7   15.68    6.40
  25  -7  -7   19.56    5.69
  25   7  -7   25.47    8.16
  25   7  -7    5.31    5.04
  23  -7  -7   31.07    7.08
 -23  -7   7   25.57    8.22
  23  -7  -7  -18.00   50.39
 -23  -7   7  -14.84   79.78
  23   7  -7   37.79    9.47
 -23   7   7  -71.96   57.69
  23   7  -7  -93.86   60.18
  23   7  -7   35.87    7.95
 -21  -7   7   34.07    9.50
 -21  -7   7  -15.56   64.03
  21  -7  -7   -5.51   45.62
  21  -7  -7   47.03    8.01
  21   7  -7   41.79    4.20
  21   7  -7   26.71    6.85
  21   7  -7   38.98    8.41
  21   7  -7  -23.55   51.71
 -21   7   7   59.29   54.04
 -19  -7   7  -49.98   40.99
  19  -7  -7   48.86    8.40
  19  -7  -7   69.03   45.92
  19   7  -7   45.58    4.79
 -19   7   7   33.68   42.96
  19   7  -7   61.75   45.74
  19   7  -7   41.80    8.41
  19   7  -7   44.54    8.76
  17  -7  -7   80.00   10.92
 -17  -7   7   31.70   54.02
  17  -7  -7   63.16   38.73
 -17   7   7  -21.62   37.54
  17   7  -7   80.07   11.60
  17   7  -7   33.67   41.25
  15  -7  -7  146.31   12.49
  15  -7  -7   95.05   40.12
 -15  -7   7  101.46   53.81
  15   7  -7  139.21   12.30
 -15   7   7   36.85   36.75
  15   7  -7  131.38   12.22
  15   7  -7  124.48    9.17
  15   7  -7  147.69   42.34
  13  -7  -7  180.65   13.98
 -13  -7   7  211.93   52.50
  13  -7  -7   62.72   36.09
  13   7  -7  182.94   13.73
  13   7  -7  184.81   46.84
 -13   7   7  156.24   12.59
  13   7  -7  202.08   14.75
  13   7  -7  162.92   11.19
  11  -7  -7  220.90   15.72
 -11  -7   7  256.74   57.58
  11  -7  -7  210.33   47.29
  11   7  -7  209.50   15.24
  11   7  -7  195.12   12.67
  11   7  -7  189.83   14.00
  11   7  -7  140.43   39.64
 -11   7   7  189.81   14.35
  -9  -7   7  277.52   55.74
   9  -7  -7  254.39   52.20
   9  -7  -7  285.78   19.14
   9   7  -7  285.39   16.62
  -9   7   7  262.50   53.02
   9   7  -7  375.44   57.05
   9   7  -7  281.13   17.16
   9   7  -7  270.72   18.15
   7  -7  -7  327.40   56.90
   7  -7  -7  373.50   22.54
  -7  -7   7  324.98   56.10
   7   7  -7  360.76   19.83
   7   7  -7  365.91   21.22
   7   7  -7  323.34   54.76
   7   7  -7  328.15   19.09
   5  -7  -7  313.82   55.36
   5  -7  -7  333.34   21.45
  -5  -7   7  344.20   55.76
   5   7  -7  349.21   19.47
   5   7  -7  320.20   17.54
  -5   7   7  395.63   61.94
   5   7  -7  355.21   20.28
   5   7  -7  287.84   50.98
   3  -7  -7  532.50   30.09
   3  -7  -7  596.50   68.75
  -3  -7   7  614.44   62.83
   3   7  -7  526.47   28.03
   3   7  -7  551.57   28.06
  -3   7   7  469.40   61.39
   3   7  -7  531.80   57.38
   3   7  -7  528.40   24.35
  -1  -7   7  647.84   65.55
   1  -7  -7  638.29   72.72
   1  -7  -7  684.24   35.71
  -1   7   7  689.12   75.42
   1   7  -7  695.94   33.12
   1   7  -7  587.72   32.74
   1   7  -7  725.38   63.72
  -1  -7  -7  557.16   31.82
  -1  -7  -7  601.48   70.16
  -1   7  -7  547.25   55.00
  -1   7  -7  592.86   29.03
   1   7   7  646.50   73.69
  -1   7  -7  570.75   30.06
  -3  -7  -7  400.60   24.58
  -3  -7  -7  416.91   65.56
  -3   7  -7  351.76   43.15
  -3   7  -7  413.81   21.11
  -3   7  -7  413.06   23.37
   3   7   7  411.51   25.44
   3   7   7  359.03   63.59
  -5  -7  -7  425.24   26.39
   5  -7   7  469.64   50.35
  -5  -7  -7  423.94   70.16
  -5   7  -7  469.26   25.83
   5   7   7  413.61   67.56
   5   7   7  458.05   27.83
  -5   7  -7  486.31   48.40
  -7  -7  -7  462.07   27.84
  -7  -7  -7  530.81   77.35
   7   7   7  465.43   29.15
  -7   7  -7  469.53   46.44
  -7   7  -7  517.84   27.69
   7   7   7  485.79   73.22
  -9  -7  -7  289.84   53.90
   9  -7   7  271.96   43.51
  -9  -7  -7  331.98   21.39
   9   7   7  316.59   22.51
  -9   7  -7  350.27   39.47
   9   7   7  247.80   59.76
  -9   7  -7  353.43   21.41
  11  -7   7  172.52   34.35
 -11  -7  -7  209.54   54.94
 -11  -7  -7  262.87   17.93
 -11   7  -7  257.80   18.00
  11   7   7  265.15   19.95
  11   7   7  213.64   61.00
 -13  -7  -7  179.47   54.72
  13  -7   7  183.79   35.03
 -13  -7  -7  170.15   14.06
  13  -7   7  160.79   31.34
  13   7   7  147.45   47.60
 -13   7  -7  190.71   15.07
  13   7   7  174.99   16.18
  15  -7   7  168.96   24.59
 -15  -7  -7  196.61   57.36
  15  -7   7  116.00   21.27
  15  -7   7  139.94   10.72
 -15  -7  -7  147.86   12.80
  15   7   7  152.84   15.34
 -15   7  -7  171.50   14.28
  15   7   7   79.54   57.67
  17  -7   7   94.33    7.45
 -17  -7  -7  122.34   10.86
 -17  -7  -7   63.06   49.48
  17   7   7   32.68   56.49
 -17   7  -7  105.58   11.46
  17   7   7   83.93   13.68
 -19   7  -7   53.15   10.12
  19   7   7   84.64   14.04
 -21  -7  -7   44.28    7.34
 -21   7  -7   48.49    9.28
  21   7   7   53.51   12.35
 -23  -7  -7   18.13    4.61
  23   7   7   28.56    8.98
 -23   7  -7   47.15    9.90
  25   7   7   30.32    9.70
 -25   7  -7   31.38    8.57
  26  -8  -7    8.00    4.71
 -26  -8   7   -1.39    4.56
  26   8  -7    2.51    4.78
  26   8  -7    7.72    5.78
 -24  -8   7    8.59    7.07
  24  -8  -7    0.97    3.02
  24   8  -7    3.33    4.60
  24   8  -7   10.23    6.08
 -22  -8   7   24.23   86.90
  22  -8  -7    5.39    4.03
 -22  -8   7    3.69    5.16
  22   8  -7   12.30    5.68
  22   8  -7    5.65    4.63
 -22   8   7   14.49   67.28
  20  -8  -7   14.64    4.79
 -20  -8   7    8.37    6.19
 -20  -8   7  -16.20   54.60
  20  -8  -7   52.81   45.83
  20   8  -7   16.39    6.08
  20   8  -7   10.85    4.89
 -20   8   7    1.72   59.34
  20   8  -7   10.72    2.54
  18  -8  -7  -24.20   46.01
 -18  -8   7   36.92   48.73
 -18  -8   7   15.81    6.62
  18  -8  -7   14.62    5.10
  18   8  -7   11.76    4.77
 -18   8   7  -17.58   52.85
  18   8  -7   12.91    5.04
  18   8  -7   11.18   48.29
  18   8  -7   16.01    3.13
  16  -8  -7    4.51    3.83
 -16  -8   7  -19.62   54.15
  16  -8  -7  -14.82   38.53
  16   8  -7   10.98    2.81
  16   8  -7   -1.26   33.01
  16   8  -7   12.60    4.78
  16   8  -7   10.52    5.01
 -16   8   7   -0.34    1.24
 -16   8   7   23.48   50.64
  14  -8  -7   13.32    4.77
  14  -8  -7   60.84   37.58
 -14  -8   7  -18.16   45.65
  14   8  -7   12.76    3.50
  14   8  -7    3.57    3.64
  14   8  -7   12.91    4.61
 -14   8   7    2.03   39.79
  14   8  -7   35.33   39.69
  12  -8  -7   20.25    5.92
 -12  -8   7  -16.66   40.91
  12  -8  -7  -13.64   34.71
  12   8  -7   17.13    6.03
 -12   8   7   20.66    5.53
 -12   8   7  -16.18   36.03
  12   8  -7   67.88   36.71
  12   8  -7   24.72    4.66
  12   8  -7   31.44    6.79
 -10  -8   7   68.00   40.35
  10  -8  -7    8.20   38.22
  10  -8  -7    7.81    4.50
  10   8  -7   23.67    5.90
 -10   8   7  -73.72   33.33
  10   8  -7   15.41    4.68
  10   8  -7   20.19    4.27
  10   8  -7   22.50   33.43
   8  -8  -7    0.21    2.56
   8  -8  -7   -9.98   34.14
  -8   8   7  -26.49   33.77
   8   8  -7    2.00    2.83
   8   8  -7    2.50    2.21
   8   8  -7  -24.12   19.42
   8   8  -7    3.59    2.62
   6  -8  -7    3.18    3.48
   6  -8  -7    6.61   32.62
  -6   8   7  -12.40   32.44
   6   8  -7  -15.98   25.08
   6   8  -7    3.61    3.22
   6   8  -7    0.27    1.92
   6   8  -7    3.19    2.39
   4  -8  -7   35.82   35.75
   4  -8  -7    2.45    3.61
  -4   8   7    0.41   33.09
   4   8  -7    8.27    3.28
   4   8  -7    9.68    2.42
   4   8  -7    6.00    3.79
   4   8  -7   19.13   27.48
   2  -8  -7    3.75   33.05
   2  -8  -7    9.33    4.69
  -2  -8   7    4.14   27.73
   2   8  -7   11.62    4.11
   2   8  -7   13.20    4.00
   2   8  -7    9.28   22.79
  -2   8   7   10.23   35.45
   0  -8  -7   -3.00   32.57
   0  -8  -7    5.12    3.79
   0  -8   7   -7.67   23.41
   0   8  -7    5.37    3.19
   0   8  -7   21.98   21.45
   0   8   7   15.21   36.11
   0   8  -7    7.96    3.48
  -2  -8  -7    6.40   25.59
  -2  -8  -7    7.69    4.54
   2  -8   7  -30.78   21.74
   2   8   7   10.24    4.85
   2   8   7  -31.73   34.95
  -2   8  -7    9.27    3.85
  -2   8  -7   -8.26   24.67
   4  -8   7    0.59   21.02
  -4  -8  -7   48.21   38.99
  -4  -8  -7    4.17    3.89
   4   8   7    4.56    3.91
  -4   8  -7    3.45   18.79
  -4   8  -7    8.44    3.88
   4   8   7  -16.79   27.61
  -6  -8  -7   27.61   30.51
  -6  -8  -7   30.89    7.46
   6  -8   7   29.94   22.31
  -6   8  -7    5.16   21.39
  -6   8  -7   20.70    5.71
   6   8   7   34.77   41.64
   6   8   7   31.04    8.02
  -8  -8  -7    8.44   36.40
  -8  -8  -7    8.19    4.37
   8  -8   7    2.84   24.20
  -8   8  -7   11.08    4.42
   8   8   7   17.14    6.15
   8   8   7   44.31   42.71
  10  -8   7    3.89   25.56
 -10  -8  -7   20.99    5.96
 -10  -8  -7    7.26   41.87
  10  -8   7   47.51   32.32
 -10   8  -7   14.48    5.32
  10   8   7  -22.53   44.64
  10   8   7   18.81    6.62
 -12  -8  -7   16.75    5.56
  12  -8   7   22.66   30.53
  12  -8   7   19.75   24.69
 -12  -8  -7   25.44   44.34
 -12   8  -7    7.58    4.38
  12   8   7    9.01    5.20
  12   8   7  -43.16   50.99
 -14  -8  -7    6.23    4.03
  14  -8   7   40.13   23.18
  14  -8   7  -16.70   24.12
 -14  -8  -7  -22.93   47.33
 -14   8  -7    3.29    3.32
  14   8   7  -50.64   54.06
  14   8   7    0.17    3.29
 -16  -8  -7   18.26    5.64
 -16  -8  -7   28.72   53.79
  16   8   7   67.50   61.46
 -16   8  -7    7.73    4.66
  16   8   7   23.02    7.87
 -18  -8  -7    2.83    3.38
 -18   8  -7    6.89    4.49
  18   8   7    5.64    4.98
 -20  -8  -7    4.93    3.86
  20   8   7    4.61    5.34
 -20   8  -7    5.34    4.33
 -22  -8  -7    3.63    3.62
 -22   8  -7    9.79    5.29
  22   8   7    5.87    6.00
 -24  -8  -7   -0.41    1.77
 -24   8  -7    4.73    4.62
  24   8   7    4.78    6.16
 -23  -9   7    8.19    6.81
  23  -9  -7   26.10    6.69
  23   9  -7    9.69    6.03
  23   9  -7   19.91    7.87
 -21  -9   7   19.66  127.71
  21  -9  -7   26.74    6.76
 -21  -9   7   25.80    9.10
  21   9  -7   26.86    7.81
  21   9  -7   28.67    7.58
 -19  -9   7   43.36   11.64
 -19  -9   7  137.16  100.58
  19  -9  -7   50.52    9.13
  19   9  -7   32.40    3.65
 -19   9   7  -64.54   67.28
  19   9  -7   33.47    8.53
  19   9  -7   46.26    9.45
  17  -9  -7   60.11   55.66
  17  -9  -7   48.11    8.60
 -17  -9   7   63.56   13.83
  17   9  -7   41.83    9.15
  17   9  -7   42.52    4.72
  17   9  -7   49.30   10.05
 -17   9   7   33.40   53.27
 -15  -9   7  -89.22   59.16
  15  -9  -7   75.86   10.96
  15  -9  -7   69.56   53.11
  15   9  -7   50.22    9.52
  15   9  -7   59.69    5.95
  15   9  -7   43.14    8.54
 -15   9   7  -54.19   48.38
  13  -9  -7    5.78   40.63
  13  -9  -7   70.03   10.70
 -13  -9   7  117.73   63.37
  13   9  -7   69.15    6.63
  13   9  -7   50.55    9.03
  13   9  -7   57.57    9.79
  13   9  -7   57.77   46.88
 -13   9   7  -26.24   44.32
  11  -9  -7   89.73   48.67
  11  -9  -7  104.91   11.16
 -11  -9   7   70.04   51.41
  11   9  -7  121.31   11.90
  11   9  -7   97.92    8.49
 -11   9   7  -20.41   46.20
  11   9  -7  132.69   48.64
  11   9  -7  103.43    9.80
   9  -9  -7   79.84   45.63
   9  -9  -7  133.84   12.84
  -9  -9   7  144.14   51.36
   9   9  -7  120.69    9.91
   9   9  -7  127.91   10.43
  -9   9   7  -19.10   39.32
   9   9  -7  128.87   12.28
   9   9  -7  159.86   48.05
   7  -9  -7  117.54   50.12
  -7  -9   7  151.29   50.58
   7  -9  -7  106.90   11.55
   7   9  -7  129.48   10.29
   7   9  -7  117.84    9.22
   7   9  -7  125.86   11.70
   7   9  -7  139.91   43.16
  -7   9   7   17.29   42.04
   5  -9  -7  161.56   53.17
  -5  -9   7  113.88   43.88
   5  -9  -7  139.52   13.08
   5   9  -7   98.66   39.50
  -5   9   7   16.52   38.70
   5   9  -7  118.94    8.29
   5   9  -7  133.86   10.77
   5   9  -7  136.03   12.01
   3  -9  -7  149.74   14.16
   3  -9  -7  191.65   53.22
  -3  -9   7  175.39   44.52
   3   9  -7  188.40   13.39
   3   9  -7  168.17   13.49
   3   9  -7  212.37   46.13
   1  -9  -7  163.98   14.74
   1  -9  -7  133.29   52.53
  -1  -9   7  156.14   45.67
   1   9  -7  161.09   12.56
   1   9  -7  100.24   34.91
  -1  -9  -7  111.39   50.52
   1  -9   7  238.59   50.41
  -1  -9  -7  162.67   14.66
   1   9   7  146.06   50.87
  -1   9  -7  174.94   13.42
  -1   9  -7  212.95   43.64
  -3  -9  -7  183.44   15.45
  -3  -9  -7  118.54   45.73
   3  -9   7  157.32   38.56
  -3   9  -7  174.21   13.84
   3   9   7  218.88   64.47
   3   9   7  173.05   15.84
   5  -9   7  133.30   40.21
   5  -9   7  126.41   52.20
  -5  -9  -7  189.58   15.80
  -5  -9  -7  231.62   59.10
   5   9   7  197.76   63.93
   5   9   7  181.63   16.36
  -5   9  -7  171.40   14.14
  -7  -9  -7  173.06   56.49
  -7  -9  -7  166.33   14.75
   7  -9   7  117.70   35.48
   7  -9   7  264.64   56.15
  -7   9  -7  167.71   14.07
   7   9   7  160.71   59.88
   7   9   7  155.28   15.46
  -9  -9  -7  147.21   58.24
  -9  -9  -7  130.22   13.26
   9  -9   7  143.88   44.95
   9   9   7  148.16   15.12
   9   9   7  131.85   66.41
  -9   9  -7  139.05   13.00
  11  -9   7  104.84   41.83
 -11  -9  -7   92.32   59.35
 -11  -9  -7  106.05   12.01
 -11   9  -7  111.33   11.91
  11   9   7  113.21   66.90
  11   9   7  114.88   13.54
 -13  -9  -7   -3.67   55.40
 -13  -9  -7   87.78   12.30
  13  -9   7   21.79   33.83
  13   9   7   44.76   51.72
 -13   9  -7   93.30   10.99
  13   9   7   72.46   13.76
 -15  -9  -7   63.04   10.30
 -15  -9  -7   31.38   60.64
  15  -9   7   37.24   21.23
  15   9   7   50.28   60.70
 -15   9  -7   64.35   11.39
  15   9   7   85.10   14.43
 -17  -9  -7   47.45    8.84
 -17   9  -7   37.28    8.47
  17   9   7   33.18    9.93
 -19  -9  -7   27.19    7.01
  19   9   7   35.27   10.11
 -19   9  -7   29.37    7.54
 -21  -9  -7   15.33    5.21
 -21   9  -7   24.77    7.50
  21   9   7   25.63    8.91
 -23  -9  -7   14.38    4.88
  23   9   7   12.46    7.90
 -23   9  -7    8.28    4.88
 -22 -10   7   13.49    7.02
  22 -10  -7    0.52    3.65
  22  10  -7    4.53    4.52
  22  10  -7    8.52    6.17
 -20 -10   7 -113.01  185.13
 -20 -10   7  -19.93  145.76
 -20 -10   7    2.69    5.18
  20 -10  -7   -1.59    2.83
  20  10  -7    4.99    4.82
  20  10  -7    8.79    5.83
 -18 -10   7  251.00  113.08
 -18 -10   7   62.92   98.45
 -16 -10   7    7.12    6.08
 -16 -10   7 -131.66   77.76
  16 -10  -7    7.98    5.02
 -16 -10   7 -122.83  100.27
  16  10  -7   11.52    3.12
  16  10  -7    4.88    4.94
 -16  10   7  -37.53   62.84
  16  10  -7    6.33    4.53
 -14 -10   7   13.83   91.05
  14 -10  -7  -32.74   54.30
  14 -10  -7    4.44    4.17
 -14 -10   7   14.41    7.91
 -14 -10   7  -13.25   66.83
  14  10  -7    0.88    2.84
  14  10  -7    5.27    4.61
  14  10  -7    7.78    2.80
 -14  10   7  -16.94   57.75
  12 -10  -7   16.59    5.79
  12 -10  -7   67.09   52.25
 -12 -10   7   37.57   63.27
 -12 -10   7   46.85   86.27
  12  10  -7   13.21    3.62
 -12  10   7  -98.29   58.12
  12  10  -7   10.22    4.55
  12  10  -7   -0.03    3.37
  10 -10  -7   58.08   52.79
  10 -10  -7    3.35    4.17
 -10 -10   7  -31.81   54.70
 -10 -10   7   16.80   74.92
  10  10  -7   25.64    6.61
  10  10  -7   17.60    4.23
  10  10  -7   14.17    4.43
 -10  10   7  -48.09   51.73
   8 -10  -7    4.78   48.07
  -8 -10   7   61.34   49.84
  -8 -10   7  -54.79   64.21
   8 -10  -7   16.74    6.28
   8  10  -7   16.20    4.34
  -8  10   7    4.27   54.39
   8  10  -7   17.48    5.79
   6 -10  -7    3.34    3.73
  -6 -10   7  -42.34   42.83
  -6 -10   7   17.89   62.89
   6 -10  -7    3.28   48.81
  -6  10   7   47.31   57.16
   6  10  -7    5.20    4.26
   6  10  -7    8.26    3.63
  -4 -10   7  -13.97   56.71
  -4 -10   7   65.86   47.64
   4 -10  -7   63.25   51.97
   4 -10  -7    5.73    4.68
   4  10  -7    8.96    3.55
  -4  10   7  -20.43   52.88
  -2 -10   7   -6.86   50.29
   2 -10  -7   12.85   50.24
   2 -10  -7    4.78    4.50
  -2 -10   7   10.45   35.59
   2  10  -7    7.34    3.71
  -2  10   7   -9.47   39.14
   0 -10  -7   62.81   50.93
   0 -10   7   22.83   35.11
   0 -10   7    2.06   47.53
   0 -10  -7    3.93    4.18
   0  10   7   -7.81   54.09
   0  10  -7    6.69    3.74
  -2 -10  -7   10.90    5.13
  -2 -10  -7   -8.75   50.74
   2 -10   7   -7.39   54.44
  -2  10  -7   10.96    4.30
   2  10   7  -33.32   52.93
  -4 -10  -7  -15.42   50.07
  -4 -10  -7    3.98    4.49
   4 -10   7   18.17   53.30
  -4  10  -7   10.57    4.43
   4  10   7    1.93    4.15
   4  10   7  -14.96   57.84
  -6 -10  -7   14.14   39.41
   6 -10   7   -1.52   47.41
  -6 -10  -7    2.58    3.69
   6  10   7   43.50   66.05
   6  10   7   17.60    6.88
  -6  10  -7    8.98    4.11
  -8 -10  -7    2.79    3.72
  -8 -10  -7  -26.60   54.77
   8 -10   7   12.19   47.87
  -8  10  -7    7.24    4.49
   8  10   7   -0.95    3.18
   8  10   7   16.64   69.14
  10 -10   7   -7.73   43.13
 -10 -10  -7   17.19   62.12
 -10 -10  -7    1.62    3.63
  10  10   7   16.08   58.31
  10  10   7   -0.14    3.89
 -10  10  -7   10.67    4.66
 -12 -10  -7   72.31   68.14
  12 -10   7  -52.45   39.74
 -12 -10  -7    3.39    4.26
  12  10   7  -15.52   80.58
  12  10   7   15.98    6.41
 -12  10  -7    0.89    3.22
 -14 -10  -7   13.78   73.39
 -14 -10  -7    1.84    3.87
  14 -10   7   16.13   33.62
  14  10   7   12.29    5.65
 -14  10  -7    2.37    3.35
  14  10   7   93.65   94.04
 -16 -10  -7   10.71    5.01
 -16  10  -7   -0.55    3.36
  16  10   7    7.23    6.29
 -18 -10  -7   -0.50    3.46
  18  10   7    2.99    5.03
 -18  10  -7    2.89    4.12
 -20 -10  -7    1.26    3.45
 -20  10  -7    5.89    5.06
  20  10   7    3.42    4.94
  19 -11  -7   10.05    5.57
 -19 -11   7   27.79    9.42
  19  11  -7   28.32    8.22
  19  11  -7    7.59    6.03
 -17 -11   7   51.26   12.90
  17 -11  -7   31.47    8.59
  17  11  -7   33.47    8.56
  17  11  -7   24.17    8.14
 -15 -11   7   31.60    9.73
  15 -11  -7   36.78    8.83
  15  11  -7   33.79    8.83
  15  11  -7   38.77    5.56
  15  11  -7   30.51    7.96
 -13 -11   7   31.84    9.50
  13 -11  -7   43.41    9.52
 -13 -11   7  116.68  105.98
  13  11  -7   50.29   10.93
  13  11  -7   51.27    5.59
  11 -11  -7   62.40   11.17
 -11 -11   7   58.38   13.80
 -11 -11   7  -65.78   90.29
  11  11  -7   66.82   11.73
   9 -11  -7   60.40   10.77
   9 -11  -7  153.77   76.53
  -9 -11   7   15.13   85.34
  -9  11   7  -74.78   66.13
   9  11  -7   69.06   11.60
   9  11  -7   81.39    7.98
   7 -11  -7   53.01   63.08
  -7 -11   7   81.05   85.05
   7 -11  -7   98.52   14.53
  -7  11   7   25.51   79.10
   5 -11  -7   38.78   65.23
  -5 -11   7   43.13   73.29
  -5  11   7   -7.38   62.51
  -3 -11   7   87.30   70.01
   3 -11  -7  113.02   65.72
   3 -11  -7  137.06   14.08
  -3  11   7   58.58   67.29
   3  11  -7  108.28   10.69
   1 -11  -7  -32.09   62.81
  -1 -11   7  196.61   77.89
   1 -11  -7  114.37   12.73
   1  11  -7  100.59   10.35
  -1  11   7   48.32   70.24
  -1 -11  -7   87.14   13.19
  -1 -11  -7   21.57   66.36
   1 -11   7   61.69   64.57
   1  11   7   13.15   69.68
   3 -11   7   27.47   57.20
  -3 -11  -7   97.84   69.79
  -3 -11  -7  127.10   16.83
   3  11   7  -23.50   70.71
  -5 -11  -7  113.84   15.95
   5 -11   7   61.47   65.19
  -5 -11  -7  170.77   79.63
   5  11   7   95.98   15.00
   5  11   7  -45.84   75.38
  -5  11  -7  102.30   11.28
   7 -11   7   42.75   62.78
  -7 -11  -7   73.48   75.20
  -7 -11  -7   82.22   13.03
   7  11   7   64.64   12.53
  -7  11  -7   84.97   13.01
  -9 -11  -7   65.74   78.11
  -9 -11  -7   59.66   11.40
   9 -11   7  112.22   58.35
   9  11   7   26.39   94.44
  -9  11  -7   78.47   12.62
   9  11   7   56.52   11.01
  11 -11   7   58.55   53.24
 -11 -11  -7   56.88   10.75
 -11 -11  -7   30.69   86.00
 -11  11  -7   66.97   11.57
  11  11   7 -174.20   93.88
  11  11   7   54.38   11.93
 -13 -11  -7   43.12    9.21
  13 -11   7  -15.11   47.04
 -13 -11  -7   67.27   90.52
 -13  11  -7   45.66    9.56
  13  11   7   87.08  114.59
  13  11   7   49.47   11.14
 -15 -11  -7   44.10    9.28
 -15  11  -7   45.84   10.10
  15  11   7   33.03    9.50
 -17 -11  -7   24.14    7.34
  17  11   7   25.89    9.15
  14 -12  -7    7.84    5.26
 -14 -12   7   -0.44    4.78
  14  12  -7    0.80    2.46
  12 -12  -7   -2.18    3.20
 -12 -12   7   -2.24    4.28
  12  12  -7    6.90    2.93
  12  12  -7   -0.45    1.54
  10 -12  -7    4.42    4.77
 -10 -12   7    1.94    4.62
  10  12  -7    5.81    3.01
  10  12  -7    0.07    1.29
  -8 -12   7    6.19    6.34
   8 -12  -7    9.72    6.04
   8  12  -7    7.56    3.75
  -6 -12   7    5.47    5.98
   6 -12  -7    6.11    5.27
   6  12  -7   10.00    3.80
   4 -12  -7    2.90    4.83
   4  12  -7   10.52    4.03
  -4  12   7  -54.18   93.80
   2 -12  -7    0.55    3.59
  -2  12   7  -82.60   89.80
   2  12  -7    2.26    2.95
   0 -12  -7   16.51   77.82
   0 -12  -7    2.63    4.23
   0  12  -7    5.82    3.91
   0  12   7  -77.52   86.10
  -2 -12  -7 -101.44   79.17
  -2 -12  -7    2.93    4.83
   2  12   7  110.01   96.58
  -4 -12  -7    3.47    4.50
  -4 -12  -7   -7.33   88.60
  -4  12  -7    1.32    3.28
   4  12   7   33.16   74.01
  -6 -12  -7   61.75   93.98
  -8 -12  -7   -3.50    2.71
  -8 -12  -7 -181.60   93.97
  -8  12  -7    1.81    3.65
   8  12   7   75.04  118.56
   8  12   7    1.85    4.55
 -10 -12  -7   -9.40  101.78
 -10 -12  -7    0.77    3.99
  10  12   7    0.31    4.40
 -10  12  -7    4.15    4.29
  10  12   7   -6.12  136.49
 -12 -12  -7    1.67    3.93
 -12  12  -7   -1.10    3.14
  12  12   7    2.81    5.10
 -14 -12  -7   -1.19    3.66
  14  12   7    8.60    6.19
 -14  12  -7    1.37    3.84
   9 -13  -7   41.45    9.55
  -9 -13   7   24.66    9.51
   9  13  -7   40.40    7.02
  -7 -13   7   49.21   12.36
   7 -13  -7   37.45    9.75
   7  13  -7   41.87    7.30
   5 -13  -7   49.47   11.01
  -5 -13   7   59.92   14.09
   5  13  -7   68.45    8.07
   3 -13  -7   34.81    9.85
  -3 -13   7   66.76   13.93
   3  13  -7   39.78    7.34
   1 -13  -7   55.32   11.89
  -1 -13   7   71.44   14.48
   1  13  -7   62.95   10.36
   1 -13   7   87.42   15.18
  -1 -13  -7   45.05   10.59
  -1  13  -7   66.89   11.30
   3 -13   7   70.29   14.31
  -3 -13  -7   41.94   10.30
  -3  13  -7   63.58   10.43
   5 -13   7   54.81   12.29
  -5 -13  -7   45.25   10.73
  -5  13  -7   63.92   10.95
   7 -13   7   51.04   12.52
  -7 -13  -7   48.74   10.83
  -7  13  -7   44.41    9.81
  30   0  -8   14.82    5.77
  30   0  -8    9.96    4.58
  28   0  -8   17.74    5.19
  28   0  -8   20.26    6.64
 -26   0   8   25.39    6.05
 -26   0   8   34.76   80.12
  26   0  -8  -34.00   45.98
  26   0  -8   28.79    6.60
  26   0  -8   36.07    8.43
 -24   0   8  112.70   62.87
  24   0  -8   31.16    6.66
  24   0  -8   56.68   43.04
  24   0  -8   21.01    6.34
  22   0  -8   47.15   39.04
  22   0  -8   44.87    7.77
  22   0  -8   53.13    9.57
 -22   0   8   64.64   49.55
  20   0  -8   96.56   37.43
 -20   0   8   16.57   39.91
  20   0  -8  106.54    9.61
  18   0  -8  139.44   11.00
  18   0  -8  175.99   39.84
 -18   0   8   12.44   35.56
  16   0  -8  224.99   15.23
  16   0  -8  258.97   49.86
 -16   0   8  257.31   55.91
 -14   0   8  241.18   54.00
  14   0  -8  396.16   50.58
  14   0  -8  273.40   17.07
  12   0  -8  301.08   47.02
 -12   0   8  294.35   55.29
  12   0  -8  312.61   18.31
  10   0  -8  427.35   50.55
  10   0  -8  416.76   22.57
 -10   0   8  429.68   64.57
  -8   0   8  628.88   65.73
   8   0  -8  727.59   64.18
   8   0  -8  738.12   34.82
   6   0  -8  626.83   30.66
   6   0  -8  685.15   60.88
   6   0  -8  608.54   30.80
  -6   0   8  604.11   61.46
  -4   0   8  455.85   54.33
   4   0  -8  401.85   21.58
   4   0  -8  546.49   51.51
   4   0  -8  393.18   21.76
  -2   0   8  488.37   26.77
  -2   0   8  515.64   56.94
   2   0  -8  525.57   25.55
   2   0  -8  496.95   50.49
   0   0  -8  601.43   30.32
   0   0  -8  601.92   55.73
   0   0   8  619.09   31.22
   0   0  -8  627.80   29.61
   0   0   8  582.52   59.98
  -2   0  -8  885.36   68.04
   2   0   8  803.40   70.45
   2   0   8  816.11   40.07
  -2   0  -8  862.40   38.41
  -2   0  -8  805.34   39.34
  -4   0  -8  790.54   34.96
   4   0   8  690.21   36.44
  -4   0  -8  769.09   62.81
   4   0   8  804.37   67.96
   6   0   8  561.92   55.52
  -6   0  -8  518.89   24.29
   6   0   8  482.83   26.32
  -6   0  -8  427.36   47.47
  -6   0  -8  511.56   26.05
  -8   0  -8  288.20   16.32
   8   0   8  309.79   47.36
  -8   0  -8  279.92   14.43
  -8   0  -8  295.72   43.53
   8   0   8  261.32   16.74
   8   0   8  260.96   15.12
 -10   0  -8  454.25   21.51
  10   0   8  379.35   48.06
 -10   0  -8  466.13   47.66
 -10   0  -8  487.16   24.05
  10   0   8  459.38   23.42
 -12   0  -8  263.81   14.66
 -12   0  -8  302.03   16.88
  12   0   8  302.56   17.12
 -12   0  -8  318.43   18.55
 -12   0  -8  300.26   43.33
 -12   0  -8  300.04   14.08
 -14   0  -8  343.05   20.44
  14   0   8  335.09   19.43
 -14   0  -8  372.55   42.07
 -14   0  -8  331.31   18.65
 -16   0  -8  152.06   31.87
  16   0   8  145.19   41.31
 -16   0  -8  180.58   11.96
 -16   0  -8  196.96   13.91
  16   0   8  178.14   13.02
 -18   0  -8   89.56    8.88
 -18   0  -8   37.33   22.82
  18   0   8   72.47    8.16
  18   0   8   51.66   30.83
 -18   0  -8   77.57    7.21
 -20   0  -8   70.36    8.23
 -20   0  -8   88.12   28.20
  20   0   8   48.37   31.69
  20   0   8   78.68   11.05
  22   0   8   51.85    9.31
 -22   0  -8   58.30    9.34
  24   0   8   47.50    8.70
 -24   0  -8   40.60    7.00
 -24   0  -8   24.90   32.64
  26   0   8   20.46    6.22
 -26   0  -8   30.05   31.46
 -26   0  -8   28.46    6.69
 -28   0  -8    5.77    3.67
  28   0   8    5.74    4.71
  30   0   8    1.80    4.36
 -30   0  -8    4.20    3.17
  31  -1  -8    1.36    3.82
  31  -1  -8    1.43    3.06
  31   1  -8    3.83    4.62
  31   1  -8    3.90    3.80
  29  -1  -8    4.34    3.58
 -29  -1   8   -0.54    1.67
  29  -1  -8    2.76    3.91
  29   1  -8    6.52    4.76
  29   1  -8    3.04    3.52
  27  -1  -8   21.33    6.33
  27  -1  -8   14.71    4.80
 -27  -1   8   10.54    4.77
  27   1  -8   12.24    4.70
  27   1  -8    7.85    5.29
 -27   1   8   55.30   71.83
  25  -1  -8   12.37    4.67
 -25  -1   8  -19.29   58.36
  25  -1  -8   13.73    4.77
  25  -1  -8   35.89   50.51
  25   1  -8   30.10   45.18
  25   1  -8   14.37    4.93
  25   1  -8   13.81    5.41
 -25   1   8   15.62   63.74
  23  -1  -8   21.44    5.56
  23  -1  -8   59.84   40.58
 -23  -1   8    8.36   52.16
  23   1  -8   16.22    4.43
  23   1  -8   15.78    5.63
  23   1  -8    3.96   42.70
  21  -1  -8   -7.98   30.26
 -21  -1   8   15.22   44.04
  21  -1  -8   22.82    5.76
  21   1  -8    2.16   33.91
 -21   1   8   47.28   43.01
  21   1  -8   16.20    4.95
  21   1  -8   20.34    5.62
  19  -1  -8   13.74   30.72
 -19  -1   8   12.85   41.75
  19  -1  -8   37.27    6.92
 -19   1   8  -38.38   34.31
  19   1  -8   35.07    6.62
  19   1  -8   -3.64   28.02
  19   1  -8   26.35    5.88
  17  -1  -8   34.98   31.45
  17  -1  -8   46.03    7.48
 -17  -1   8   70.90   38.90
  17   1  -8   47.12   29.52
 -17   1   8   53.18   28.04
  17   1  -8   58.10    8.21
  15  -1  -8   53.78    8.11
  15  -1  -8   73.38   30.44
 -15  -1   8   80.48   38.54
 -15   1   8   -9.51   28.65
  15   1  -8   44.53   29.58
  15   1  -8   50.14    7.57
 -13  -1   8   78.94   35.15
  13  -1  -8   13.97   22.66
  13  -1  -8   46.95    7.32
  13   1  -8   39.33   21.14
  13   1  -8   36.38    6.19
 -13   1   8   55.25   27.79
  11  -1  -8   67.81    8.77
  11  -1  -8   57.68   25.10
 -11  -1   8   32.43   29.04
  11   1  -8   41.95   26.58
  11   1  -8   60.41    6.51
 -11   1   8   93.11   30.05
   9  -1  -8   82.39   28.99
  -9  -1   8   78.48   31.08
   9  -1  -8   75.23    7.26
   9   1  -8   70.72   26.82
   9   1  -8   67.75    8.62
  -9   1   8   30.62   24.66
   7  -1  -8  102.95   27.38
   7  -1  -8   86.57    7.57
   7  -1  -8   74.42    7.47
  -7  -1   8   67.11   28.95
   7   1  -8   66.21    6.78
  -7   1   8   51.87   25.20
   7   1  -8  126.76   29.42
   5  -1  -8   34.10   21.23
   5  -1  -8   28.62    5.51
   5  -1  -8   30.02    5.36
  -5  -1   8   20.06   23.16
   5   1  -8   22.60   18.69
   5   1  -8   28.84    5.40
   5   1  -8   39.66    5.78
  -5   1   8   -6.95   20.68
   3  -1  -8    3.25   16.48
  -3  -1   8    6.21   21.35
   3  -1  -8   12.26    3.52
   3  -1  -8   11.75    3.56
  -3   1   8   31.04   21.64
   3   1  -8   16.70   15.94
   3   1  -8   12.32    3.55
   3   1  -8   12.44    3.32
  -1  -1   8   49.37   24.79
   1  -1  -8   20.73   18.93
   1  -1  -8   51.74    5.96
   1  -1  -8   37.39    5.76
  -1  -1   8   43.23    6.61
   1   1  -8   71.33   22.11
   1   1  -8   40.74    5.64
  -1   1   8   42.58    7.64
   1   1  -8   41.49    4.85
  -1   1   8   15.70   17.05
  -1  -1  -8    8.28    3.36
   1  -1   8   20.34    4.28
  -1  -1  -8   12.31    3.48
   1  -1   8   21.44   19.59
  -1  -1  -8    0.70   14.27
   1   1   8   18.03    5.17
  -1   1  -8   21.55   16.43
   1   1   8    3.46   20.20
  -1   1  -8   18.60    3.74
  -1   1  -8   12.76    3.19
  -3  -1  -8   50.56   22.65
  -3  -1  -8   24.98    5.47
   3  -1   8   33.04    5.72
  -3  -1  -8   35.66    5.59
   3  -1   8   31.76   21.00
  -3   1  -8   24.67    4.33
   3   1   8   31.99    6.49
   3   1   8   46.28   25.20
  -3   1  -8   17.64   15.17
  -3   1  -8   25.17    4.49
  -5  -1  -8   47.83   21.78
   5  -1   8   58.23    6.16
  -5  -1  -8   71.21    7.48
  -5  -1  -8   61.82    5.99
   5  -1   8   68.21   25.29
   5   1   8   49.92   24.90
  -5   1  -8   63.97    5.45
  -5   1  -8   77.09    6.23
  -5   1  -8   69.48   22.30
  -7  -1  -8    2.05    2.32
   7  -1   8    6.27    2.60
  -7  -1  -8    3.44    2.15
   7  -1   8   -2.80   16.74
  -7  -1  -8   -0.39   16.82
  -7   1  -8    7.58    2.42
   7   1   8    1.94    2.12
  -7   1  -8    5.91    1.88
  -7   1  -8    5.92   14.55
   7   1   8  -23.57   19.62
   9  -1   8    1.77    1.63
  -9  -1  -8    4.01    2.07
  -9  -1  -8    1.18    2.20
   9  -1   8   -0.76    1.32
   9  -1   8  -18.90   18.06
  -9  -1  -8    1.42   18.97
  -9   1  -8    2.74    2.42
   9   1   8   26.27   23.00
   9   1   8    2.04    2.23
  -9   1  -8    8.95   14.33
  -9   1  -8    0.95    1.43
  -9   1  -8    3.60    1.64
 -11  -1  -8   15.82    3.08
  11  -1   8   10.92    3.55
  11  -1   8   18.53    3.65
 -11  -1  -8   13.95   18.53
 -11  -1  -8   17.90    4.20
 -11  -1  -8   15.17    3.85
 -11   1  -8   15.41    2.19
 -11   1  -8   19.50    5.01
  11   1   8   17.17    4.47
 -11   1  -8   33.36   19.52
 -11   1  -8   11.25    2.28
 -11   1  -8   17.36    3.27
  11   1   8   -0.28   22.10
 -13  -1  -8   66.20    7.35
 -13  -1  -8   82.29    7.65
  13  -1   8   67.36    6.25
 -13  -1  -8   64.05    5.53
 -13  -1  -8   62.69    4.88
 -13  -1  -8   67.01   29.02
 -13   1  -8   64.40   21.06
  13   1   8   65.51    9.05
 -13   1  -8   66.08    5.55
 -13   1  -8   67.37    7.79
  15  -1   8    7.39    3.04
 -15  -1  -8    6.07    3.19
 -15  -1  -8    3.87    2.92
 -15  -1  -8    6.81    1.48
 -15  -1  -8   -6.15   18.44
 -15  -1  -8    5.45    1.41
  15   1   8   -1.91   25.09
 -15   1  -8    7.21    2.25
 -15   1  -8    4.77   17.26
 -15   1  -8    6.19    3.41
  15   1   8    8.33    3.56
 -17  -1  -8    6.50    3.20
  17  -1   8    3.34    2.40
  17  -1   8   17.70   23.06
 -17  -1  -8    2.79   22.96
  17   1   8   -1.72    1.98
 -17   1  -8   -0.23    1.42
 -17   1  -8   -0.28    2.14
 -17   1  -8   17.17   19.55
  17   1   8   19.34   24.29
  19  -1   8    4.78    3.28
  19  -1   8   38.08   27.34
 -19  -1  -8    6.25   26.09
 -19  -1  -8    4.85    3.05
  19   1   8    6.96    4.10
 -19   1  -8   17.17   20.10
  19   1   8  -12.46   31.12
 -19   1  -8    5.90    3.76
  21  -1   8   16.52    4.91
  21  -1   8   -3.97   42.58
 -21  -1  -8   17.61    4.85
  21   1   8   15.54    5.32
 -21   1  -8   15.58    5.28
 -21   1  -8   -4.41   21.50
 -23  -1  -8    0.39    2.51
  23  -1   8   11.29    4.29
 -23   1  -8    5.52    3.96
  23   1   8   16.76    5.66
 -25  -1  -8    2.19    2.77
 -25  -1  -8   45.56   41.32
  25  -1   8   13.27    5.00
 -25   1  -8    6.24    4.14
  25   1   8    3.30    3.88
 -25   1  -8    0.68   20.98
 -27  -1  -8   22.98   42.91
  27  -1   8    0.82    3.39
 -27  -1  -8    4.22    3.08
  27   1   8    1.69    3.72
 -27   1  -8    4.81    3.07
  29  -1   8    2.64    3.86
 -29  -1  -8   -1.31    1.01
  29   1   8    2.87    4.29
 -29   1  -8    3.57    3.18
  30  -2  -8    9.51    4.41
 -30  -2   8    0.47    2.28
  30  -2  -8    3.66    4.73
  30   2  -8   15.85    5.60
  30   2  -8    2.60    3.76
 -28  -2   8    8.03    4.89
  28  -2  -8    8.29    4.43
  28  -2  -8   18.02    5.57
  28   2  -8    8.88    5.21
  28   2  -8   15.67    5.03
  26  -2  -8    8.97   53.46
  26  -2  -8   30.42    6.67
 -26  -2   8   23.14   83.88
 -26  -2   8   22.97    7.08
  26  -2  -8   25.57    6.74
 -26   2   8   60.28   65.42
  26   2  -8   18.01    5.86
  26   2  -8   26.40   49.14
  26   2  -8   20.38    5.81
 -24  -2   8   53.53   59.45
  24  -2  -8   41.49    7.75
  24  -2  -8   69.88   41.00
  24   2  -8   25.96    6.85
  24   2  -8   31.49    6.60
 -24   2   8    5.83   53.71
  24   2  -8  -13.02   42.11
 -22  -2   8   24.15   51.09
  22  -2  -8   48.05   40.62
  22  -2  -8   38.12    7.04
  22   2  -8   22.83   37.70
  22   2  -8   41.85    8.44
  22   2  -8   49.10    7.98
  20  -2  -8   77.59   10.13
 -20  -2   8   31.05   44.26
  20  -2  -8   48.81   34.52
 -20   2   8   -5.28   39.44
 -20   2   8   74.52   10.05
  20   2  -8   77.77    8.81
  20   2  -8   64.65    9.04
  20   2  -8  167.66   44.43
  18  -2  -8   50.97   32.39
 -18  -2   8   31.98   40.70
  18  -2  -8  130.35   10.46
 -18   2   8   48.01   36.93
  18   2  -8  107.38   39.44
  18   2  -8  111.57   10.23
  18   2  -8  108.10    9.98
 -18   2   8  113.82   10.90
  16  -2  -8  143.15   11.49
 -16  -2   8  173.45   48.51
  16  -2  -8  163.40   41.15
  16   2  -8   94.50   36.45
  16   2  -8  163.01   12.06
 -16   2   8  219.83   52.22
  16   2  -8  157.97   12.08
  14  -2  -8  156.24   37.41
 -14  -2   8  218.13   50.66
  14  -2  -8  198.03   13.59
  14   2  -8  187.75   13.29
 -14   2   8  180.20   45.30
  14   2  -8  182.85   12.84
  14   2  -8  216.69   44.12
  12  -2  -8  200.45   14.26
  12  -2  -8  257.06   44.41
 -12  -2   8  157.70   40.53
  12   2  -8  256.80   46.12
  12   2  -8  242.45   14.81
 -12   2   8  274.04   50.58
 -10  -2   8  385.62   62.94
  10  -2  -8  433.08   23.55
  10  -2  -8  409.86   51.37
  10   2  -8  379.81   47.02
  10   2  -8  440.98   23.08
 -10   2   8  486.15   60.70
  -8  -2   8  723.99   69.18
   8  -2  -8  681.26   64.21
   8  -2  -8  681.89   34.37
  -8   2   8  724.35   72.58
   8   2  -8  682.39   33.65
   8   2  -8  754.93   64.32
   6  -2  -8  657.16   59.28
  -6  -2   8  644.34   65.88
   6  -2  -8  583.91   31.08
   6  -2  -8  618.70   30.70
  -6   2   8  577.84   65.29
   6   2  -8  604.73   29.70
   6   2  -8  583.43   55.42
   4  -2  -8  706.09   35.51
  -4  -2   8  814.80   71.28
   4  -2  -8  645.07   62.73
   4  -2  -8  736.78   34.75
  -4   2   8  775.56   69.16
   4   2  -8  692.01   33.43
   4   2  -8  669.16   32.75
   4   2  -8  696.24   61.16
   2  -2  -8  962.10   75.62
  -2  -2   8  981.91   79.04
   2  -2  -8  950.94   43.30
   2  -2  -8  890.22   44.27
   2   2  -8  893.31   41.75
   2   2  -8  873.65   41.15
   2   2  -8 1026.87   73.48
  -2   2   8  890.42   77.83
   0  -2  -8  852.34   39.97
   0  -2  -8  817.56   70.27
   0  -2   8  869.05   73.30
   0  -2   8  838.45   42.08
   0  -2  -8  840.27   41.66
   0   2  -8  877.15   67.00
   0   2   8  871.87   74.22
   0   2  -8  822.79   38.10
   0   2  -8  845.96   38.56
   2  -2   8  901.68   43.28
  -2  -2  -8  862.90   73.60
   2  -2   8  980.59   75.98
  -2  -2  -8  899.22   42.88
  -2  -2  -8  929.40   45.19
  -2   2  -8  941.77   41.22
  -2   2  -8  947.89   41.57
   2   2   8  865.64   76.61
  -2   2  -8  939.49   69.25
  -4  -2  -8  922.99   45.29
   4  -2   8  862.03   72.32
  -4  -2  -8  972.06   43.00
  -4  -2  -8  893.02   73.82
   4  -2   8  917.23   43.22
  -4   2  -8  936.82   41.04
  -4   2  -8  900.79   40.57
  -4   2  -8  970.51   68.89
   4   2   8  823.30   75.20
   6  -2   8  847.46   68.71
   6  -2   8  771.92   37.56
  -6  -2  -8  802.80   37.16
  -6  -2  -8  819.06   69.67
  -6  -2  -8  770.03   39.80
  -6   2  -8  865.60   63.01
   6   2   8  733.05   68.74
  -6   2  -8  760.09   35.01
  -6   2  -8  743.68   34.51
   6   2   8  847.55   38.41
  -8  -2  -8  513.11   56.41
  -8  -2  -8  582.64   28.09
   8  -2   8  579.33   28.85
   8  -2   8  458.97   52.76
  -8  -2  -8  577.07   30.96
  -8   2  -8  596.58   25.88
  -8   2  -8  551.66   50.98
  -8   2  -8  549.92   25.56
   8   2   8  587.53   29.61
  -8   2  -8  593.03   30.12
   8   2   8  616.52   61.73
 -10  -2  -8  414.89   50.04
 -10  -2  -8  378.82   23.11
 -10  -2  -8  407.47   20.62
  10  -2   8  360.85   21.11
 -10   2  -8  396.46   18.52
 -10   2  -8  438.88   23.49
 -10   2  -8  393.46   40.35
  10   2   8  435.40   53.59
 -10   2  -8  419.57   17.65
 -10   2  -8  373.52   17.90
  10   2   8  418.91   22.84
 -12  -2  -8  433.31   51.57
  12  -2   8  393.90   22.00
 -12  -2  -8  405.03   21.97
 -12  -2  -8  418.83   20.72
  12  -2   8  385.79   19.73
 -12  -2  -8  431.83   24.31
 -12   2  -8  405.85   41.91
  12   2   8  428.21   23.89
 -12   2  -8  486.41   24.73
 -12   2  -8  390.46   19.17
  14  -2   8  397.49   48.53
 -14  -2  -8  433.23   51.22
 -14  -2  -8  382.02   18.96
  14  -2   8  384.20   19.45
 -14  -2  -8  442.57   22.53
  14  -2   8  374.03   22.20
 -14  -2  -8  352.62   19.58
  14   2   8  413.23   59.97
  14   2   8  362.10   22.79
 -14   2  -8  422.29   39.82
 -14   2  -8  384.17   22.87
 -16  -2  -8  177.15   12.62
  16  -2   8  162.03   10.76
 -16  -2  -8  164.19    9.08
  16  -2   8  166.19   34.26
 -16  -2  -8  149.17    9.24
 -16  -2  -8  125.00   36.26
 -16   2  -8  192.35   14.05
  16   2   8  200.08   14.66
 -16   2  -8  168.74   29.25
  16   2   8  176.14   42.36
  18  -2   8  136.73   30.32
 -18  -2  -8  107.20    9.57
  18  -2   8  118.57    9.01
 -18  -2  -8  100.19   33.96
 -18   2  -8  117.87   11.00
  18   2   8   85.99   38.39
 -18   2  -8   93.09   23.84
  18   2   8   99.79   10.91
 -20  -2  -8   92.36    8.84
 -20  -2  -8   47.30   33.54
  20  -2   8   86.67   28.18
  20  -2   8  110.84    9.09
  20   2   8   73.91   46.79
 -20   2  -8   70.85   21.77
  20   2   8   83.27   12.38
 -20   2  -8  103.37   10.54
 -22  -2  -8   58.63    8.44
  22  -2   8   68.14    7.37
 -22   2  -8   21.76   17.11
  22   2   8   54.73    9.82
 -22   2  -8   62.22   10.09
  24  -2   8   60.08    9.21
  24   2   8   56.61   10.46
 -24   2  -8   48.27    8.37
 -26  -2  -8   24.71    5.48
  26  -2   8   30.87    6.69
 -26  -2  -8  -28.77   46.22
  26   2   8   34.41    8.29
 -26   2  -8   38.62    7.90
  28  -2   8   17.25    5.54
 -28   2  -8    9.37    4.33
  28   2   8   21.67    7.41
  29  -3  -8    5.65    4.95
  29  -3  -8    1.71    3.41
 -29  -3   8   -0.98    2.49
  29   3  -8    5.79    4.59
  29   3  -8    0.52    3.32
 -27  -3   8   19.74    6.80
  27  -3  -8    7.34    4.07
  27   3  -8   10.08    5.55
  27   3  -8    9.72    5.28
 -25  -3   8 -120.34   70.70
  25  -3  -8   20.54    5.52
  25  -3  -8   39.45   45.05
 -25  -3   8   35.26    8.79
  25   3  -8  101.38   59.60
 -25   3   8    2.89   64.06
  25   3  -8   16.77    5.59
  25   3  -8    6.50    4.25
  23  -3  -8   11.10    4.12
 -23  -3   8  -24.12   58.40
  23  -3  -8   18.72   42.74
 -23   3   8    0.01    1.44
  23   3  -8    8.71    4.05
  23   3  -8   -4.22   43.61
  23   3  -8    2.15    3.45
 -23   3   8  -23.75   54.94
 -21  -3   8   40.83   50.22
  21  -3  -8   16.04   38.64
  21  -3  -8   22.43    5.37
  21   3  -8    3.18   39.43
 -21   3   8  -65.85   40.97
  21   3  -8   15.36    5.52
  21   3  -8   14.31    5.18
 -19  -3   8   37.05   43.55
  19  -3  -8    5.88   29.04
  19  -3  -8   26.54    6.07
 -19   3   8   25.60    5.77
  19   3  -8   15.20    4.81
  19   3  -8   21.42    5.85
  19   3  -8   41.35   34.76
 -19   3   8   25.23   41.95
  17  -3  -8   42.30   27.77
 -17  -3   8   64.05   44.07
  17  -3  -8   10.78    4.01
 -17   3   8   10.39    4.16
  17   3  -8   17.28    4.48
  17   3  -8   15.34    4.48
  17   3  -8   16.30   31.85
 -17   3   8   -1.19   33.86
 -15  -3   8   34.51   36.85
  15  -3  -8    7.77   24.63
  15  -3  -8    9.43    3.95
  15   3  -8   15.43    4.57
 -15   3   8   52.81   35.12
  15   3  -8   -1.24   20.66
 -15   3   8    9.01    4.45
  15   3  -8   16.66    4.67
  13  -3  -8  -21.73   22.01
 -13  -3   8    9.30   31.21
  13  -3  -8   10.64    4.07
  13   3  -8   10.39    3.31
 -13   3   8   31.30   31.75
  13   3  -8   -9.23   21.95
  13   3  -8   15.76    4.12
  11  -3  -8    5.91    3.33
  11  -3  -8    1.00   23.20
 -11  -3   8   38.82   31.04
 -11   3   8   17.48   27.14
  11   3  -8   10.86    3.08
  11   3  -8   12.36    3.80
  11   3  -8   13.59   17.74
   9  -3  -8   19.68   22.47
  -9  -3   8   19.93   25.67
   9  -3  -8   22.27    5.24
  -9   3   8   20.34   22.30
   9   3  -8   30.50   23.15
   9   3  -8   22.21    4.28
   9   3  -8   17.47    4.50
   7  -3  -8   20.97   22.55
   7  -3  -8   43.62    7.09
  -7  -3   8   35.57   21.02
   7   3  -8   28.94    4.30
  -7   3   8   70.41   31.26
   7   3  -8   32.93   22.95
   7   3  -8   21.92    4.67
  -5  -3   8   36.27   25.90
   5  -3  -8   18.35   22.57
   5  -3  -8   18.42    4.68
   5  -3  -8   14.24    4.71
   5   3  -8    2.75   17.63
   5   3  -8   17.53    4.15
  -5   3   8   11.87   17.74
  -3  -3   8   47.26   25.80
   3  -3  -8   16.17    4.23
   3  -3  -8   22.43   19.56
   3  -3  -8   16.00    4.36
   3   3  -8   27.44    4.81
   3   3  -8   23.65    3.72
  -3   3   8   60.60   28.94
   3   3  -8   33.28   19.70
   1  -3  -8   45.42    7.87
  -1  -3   8   13.70   20.96
   1  -3  -8   27.83   18.94
   1  -3  -8   41.86    6.72
  -1   3   8   53.84   29.43
   1   3  -8   50.45    4.24
   1   3  -8   49.19   21.54
   1   3  -8   46.58    6.07
   1  -3   8   -0.17   17.44
  -1  -3  -8   12.24    4.14
  -1  -3  -8    8.49    3.42
  -1  -3  -8    9.26   16.99
  -1   3  -8   15.44    3.26
  -1   3  -8   16.72    2.70
   1   3   8   -4.30   21.11
  -1   3  -8   18.76   16.52
  -3  -3  -8   20.19    4.56
   3  -3   8   21.32    6.86
   3  -3   8   24.34   21.67
  -3  -3  -8   21.18    5.38
  -3  -3  -8    7.32   20.23
   3   3   8   30.50   24.21
  -3   3  -8   20.97    1.96
  -3   3  -8   19.84    3.82
  -3   3  -8   47.31   19.03
  -5  -3  -8   41.25   26.01
  -5  -3  -8   42.81    6.93
   5  -3   8   32.23   19.71
  -5  -3  -8   31.55    6.84
   5  -3   8   35.08    5.53
  -5   3  -8   35.78   18.01
  -5   3  -8   32.36    4.35
   5   3   8   39.92   24.97
  -5   3  -8   24.36    5.12
   5   3   8   41.80    7.32
  -7  -3  -8   29.12    5.44
   7  -3   8   21.27   18.36
  -7  -3  -8   22.22   23.84
  -7  -3  -8   23.85    5.89
   7  -3   8   22.95    4.54
  -7   3  -8   29.36    3.68
   7   3   8   27.38    5.56
  -7   3  -8   24.75    5.71
   7   3   8   53.97   26.60
  -7   3  -8   31.89   17.88
  -9  -3  -8   14.38   20.38
  -9  -3  -8   14.51    5.08
   9  -3   8    9.78    3.09
  -9  -3  -8    9.70    3.25
  -9   3  -8   14.67    1.50
   9   3   8  -13.67   21.67
   9   3   8   19.95    5.39
  -9   3  -8   27.61   17.14
  -9   3  -8   11.20    4.02
  11  -3   8   16.94    4.00
 -11  -3  -8   18.14    4.78
 -11  -3  -8   -2.29   22.28
 -11  -3  -8   23.22    4.65
 -11   3  -8    5.76   14.86
  11   3   8    8.81   26.85
 -11   3  -8   18.97    5.31
  11   3   8   22.10    5.69
  13  -3   8   -3.12   20.33
 -13  -3  -8   29.29    5.58
  13  -3   8   23.02    4.64
 -13  -3  -8   25.37    4.64
 -13  -3  -8   28.32   24.43
  13   3   8   29.39   47.51
  13   3   8   26.45    6.61
 -13   3  -8   14.86   16.93
 -13   3  -8   19.18    5.13
  15  -3   8   28.17   20.37
 -15  -3  -8   18.16    3.62
  15  -3   8   17.03    2.88
 -15  -3  -8   20.80    4.86
  15  -3   8   12.30    3.59
 -15  -3  -8   20.73    4.20
 -15  -3  -8   -1.54   25.12
 -15   3  -8    8.05   15.28
 -15   3  -8   12.41    4.65
  15   3   8   24.41    6.54
  15   3   8    4.12   27.85
 -17  -3  -8   29.30   34.55
 -17  -3  -8    7.43    3.19
  17  -3   8   17.79   21.20
  17  -3   8    6.00    2.23
 -17  -3  -8    9.05    2.43
 -17   3  -8   -8.55   14.40
 -17   3  -8    5.23    3.74
  17   3   8  -15.02   31.75
  17   3   8    7.37    4.52
 -19  -3  -8    7.17   33.20
  19  -3   8   11.30   21.08
 -19  -3  -8   12.24    3.79
  19  -3   8   12.69    3.24
  19   3   8    6.49    4.46
  19   3   8   26.70   39.38
 -19   3  -8    8.18    4.13
 -19   3  -8  -17.13   14.39
  21  -3   8   17.72    4.27
 -21  -3  -8   14.71    4.13
 -21   3  -8   18.81    9.62
 -21   3  -8   16.70    5.58
  21   3   8   20.13    6.44
 -23  -3  -8    3.22    2.68
  23  -3   8    8.27    3.43
  23   3   8    2.18    3.71
 -23   3  -8    4.51    3.88
 -25  -3  -8   59.05   55.20
  25  -3   8    0.47    2.68
  25   3   8    7.15    5.62
 -25   3  -8    6.53    4.78
  27  -3   8    8.51    3.71
 -27   3  -8    3.20    3.79
  27   3   8    3.45    4.94
  29  -3   8    6.12    4.48
 -29  -3  -8    0.53    1.22
 -29   3  -8    2.48    3.79
  29   3   8    2.62    4.64
 -28  -4   8    6.60    5.16
  28  -4  -8    3.32    3.48
  28   4  -8   20.23    7.26
  28   4  -8   11.75    4.92
 -26  -4   8   12.96    6.79
  26  -4  -8   28.51    6.30
  26   4  -8   11.12    5.47
  26   4  -8   16.91    6.03
 -24  -4   8   89.80   78.14
  24  -4  -8   26.86    6.37
  24  -4  -8   15.65   47.52
 -24   4   8  -40.67   61.76
  24   4  -8    1.96   52.35
  24   4  -8   35.91    8.54
  24   4  -8   36.30    7.57
 -22  -4   8  -38.82   59.08
  22  -4  -8    4.64   43.85
 -22   4   8  -40.25   50.21
 -22   4   8   -0.55    1.31
  22   4  -8   92.31   50.28
  22   4  -8   32.26    6.83
  20  -4  -8   57.51    8.95
  20  -4  -8   48.83   35.49
 -20  -4   8   60.70   54.17
  20   4  -8   72.62   42.80
  20   4  -8   75.72   10.32
 -20   4   8   15.94   39.75
  20   4  -8   73.32   11.10
  18  -4  -8   96.96   38.42
 -18  -4   8  -20.55   40.90
  18  -4  -8  103.55    9.70
 -18   4   8  -47.39   35.90
  18   4  -8   82.34   37.47
 -18   4   8   93.86    8.95
  18   4  -8   80.24    9.13
  18   4  -8   84.66    8.98
  16  -4  -8  103.30    9.88
 -16  -4   8  126.49   47.66
  16  -4  -8  104.54   39.01
 -16   4   8  109.59    9.91
  16   4  -8  119.68   10.38
  16   4  -8  106.34    9.83
 -16   4   8   10.85   32.94
  16   4  -8  128.55   37.51
 -14  -4   8  110.73   45.57
  14  -4  -8  103.61   10.06
  14  -4  -8   64.97   32.08
  14   4  -8  109.66   10.14
 -14   4   8  138.55   13.09
  14   4  -8  135.85   10.49
  14   4  -8  124.69   38.85
 -14   4   8   85.97   38.47
  12  -4  -8  151.22   12.20
  12  -4  -8  177.05   40.24
 -12  -4   8  204.29   48.55
  12   4  -8  160.61   11.28
 -12   4   8  150.54   44.93
  12   4  -8  153.82   11.72
  12   4  -8   74.89   33.76
  10  -4  -8  266.99   17.57
 -10  -4   8  225.60   51.19
  10  -4  -8  285.11   50.19
  10   4  -8  278.18   16.00
  10   4  -8  284.96   17.20
  10   4  -8  276.43   49.71
 -10   4   8  369.50   59.99
   8  -4  -8  364.72   21.06
   8  -4  -8  378.05   57.17
  -8  -4   8  304.59   53.06
   8   4  -8  341.49   52.64
   8   4  -8  356.85   19.96
   8   4  -8  338.59   18.28
  -8   4   8  354.02   60.26
   6  -4  -8  201.29   14.43
   6  -4  -8  196.96   42.58
  -6  -4   8  246.98   46.64
   6   4  -8  240.19   42.15
   6   4  -8  221.12   13.79
  -6   4   8  234.62   45.55
   6   4  -8  213.79   12.08
  -4  -4   8  293.94   51.41
   4  -4  -8  404.98   22.47
   4  -4  -8  385.34   58.86
   4   4  -8  429.22   48.70
  -4   4   8  473.80   68.60
   4   4  -8  369.74   18.47
   4   4  -8  394.56   20.80
   2  -4  -8  627.79   63.25
  -2  -4   8  545.07   60.57
   2  -4  -8  637.06   32.34
   2   4  -8  636.23   30.24
   2   4  -8  604.98   27.46
   2   4  -8  700.01   60.28
  -2   4   8  624.40   65.01
   0  -4   8  277.77   48.76
   0  -4  -8  360.21   20.81
   0  -4  -8  339.13   54.96
   0   4   8  286.41   51.80
   0   4  -8  356.54   15.53
   0   4  -8  379.58   43.09
   0   4  -8  352.11   18.64
   0   4  -8  360.82   15.87
   2  -4   8  259.04   44.26
  -2  -4  -8  273.61   17.51
  -2  -4  -8  314.00   52.94
   2   4   8  298.90   51.53
  -2   4  -8  281.72   42.02
  -2   4  -8  298.22   17.68
  -2   4  -8  281.62   15.39
   4  -4   8  448.04   53.35
  -4  -4  -8  416.92   23.91
  -4  -4  -8  334.15   54.61
  -4   4  -8  396.37   43.83
  -4   4  -8  426.36   21.27
   4   4   8  467.55   25.27
   4   4   8  480.49   58.68
  -4   4  -8  466.62   24.59
   6  -4   8  390.68   55.34
  -6  -4  -8  431.38   24.45
  -6  -4  -8  521.27   59.75
   6   4   8  490.33   61.71
  -6   4  -8  434.42   21.25
  -6   4  -8  419.05   45.45
  -6   4  -8  499.28   25.73
   6   4   8  454.41   25.75
  -8  -4  -8  345.66   55.16
  -8  -4  -8  297.15   18.81
   8  -4   8  312.18   19.42
   8   4   8  370.86   60.71
   8   4   8  351.15   21.06
  -8   4  -8  227.36   36.23
  -8   4  -8  386.13   21.04
  10  -4   8  168.12   11.62
 -10  -4  -8  220.09   46.71
 -10  -4  -8  183.88   12.60
 -10   4  -8  190.75   14.02
 -10   4  -8  180.08   29.26
  10   4   8  175.89   45.70
  10   4   8  172.20   14.05
 -12  -4  -8  235.77   15.89
  12  -4   8  226.84   14.18
 -12  -4  -8  237.29   14.92
 -12  -4  -8  252.88   51.18
  12  -4   8  195.97   36.30
  12   4   8  237.12   17.24
 -12   4  -8  249.71   16.99
 -12   4  -8  243.14   31.84
  14  -4   8  172.34   12.64
 -14  -4  -8  172.81   12.70
  14  -4   8  146.85   31.10
 -14  -4  -8  179.52   12.18
 -14  -4  -8  181.69   42.50
 -14   4  -8  202.62   14.87
 -14   4  -8  179.23   28.46
  14   4   8  238.79   51.96
  14   4   8  180.27   15.10
 -16  -4  -8  103.67    8.94
 -16  -4  -8   58.80   38.61
 -16  -4  -8   96.57    7.93
  16  -4   8  102.00   15.31
  16  -4   8  104.52   25.11
 -16  -4  -8   88.19    8.03
  16   4   8  108.79   11.39
 -16   4  -8  105.26   10.72
  16   4   8   73.67   39.78
 -16   4  -8   96.33   21.38
  18  -4   8   95.06   22.98
 -18  -4  -8  117.86    9.46
 -18  -4  -8  107.70    7.85
 -18  -4  -8   96.32   46.02
  18  -4   8  107.44    6.38
 -18   4  -8  116.53   11.60
 -18   4  -8   83.78   18.38
  18   4   8  117.73   12.58
  18   4   8   94.01   50.42
  20  -4   8   76.74    5.87
 -20  -4  -8   74.67    7.24
  20   4   8   71.75   12.27
 -20   4  -8   83.87   10.06
 -22  -4  -8   34.61    5.51
  22  -4   8   42.09    4.76
  22   4   8   38.03    9.44
 -22   4  -8   32.30    7.78
  24  -4   8   26.72    5.08
 -24   4  -8   18.74    6.36
  24   4   8   29.13    7.90
  26  -4   8   13.82    4.39
  26   4   8   21.68    7.41
 -26   4  -8   15.50    5.80
  28   4   8   16.20    7.45
 -28   4  -8   20.17    6.25
 -27  -5   8    1.52    4.91
  27  -5  -8    9.87    4.72
  27   5  -8    2.44    4.12
  27   5  -8   -3.78    2.17
 -25  -5   8  -72.93  110.51
 -25  -5   8   14.40    6.51
  25  -5  -8    7.04    4.04
  25   5  -8    2.90    4.43
  25   5  -8    9.03    5.16
  23  -5  -8   11.44    4.52
  23  -5  -8    5.31   43.83
 -23  -5   8   72.73   69.97
  23   5  -8    9.19    4.03
 -23   5   8   -4.56   61.24
  23   5  -8  -27.04   52.15
  23   5  -8   14.85    5.41
  21  -5  -8   58.30   41.75
  21  -5  -8    9.75    4.37
 -21  -5   8  -19.04   42.98
  21   5  -8   25.92    6.20
 -21   5   8   30.84   49.21
  21   5  -8   15.88    5.28
  21   5  -8  -20.59   45.78
  19  -5  -8   24.19    5.74
 -19  -5   8   -8.27   50.92
  19  -5  -8   27.21   35.79
  19   5  -8   31.75    6.93
  19   5  -8   31.12    6.98
 -19   5   8   -9.23   41.36
  19   5  -8   31.86   34.16
  17  -5  -8   20.13    5.60
  17  -5  -8   21.31   30.74
 -17  -5   8   41.11   48.18
  17   5  -8   20.04   36.42
  17   5  -8   14.27    4.88
 -17   5   8   21.66    5.18
  17   5  -8   23.41    5.94
  15  -5  -8   -8.68   27.43
  15  -5  -8   24.23    6.01
 -15  -5   8   63.64   42.01
 -15   5   8   19.07    4.87
  15   5  -8   30.14    6.32
 -15   5   8   -6.86   34.80
  15   5  -8   31.08   32.00
  15   5  -8   25.35    6.03
  13  -5  -8   30.67    6.59
 -13  -5   8  -42.88   34.59
  13  -5  -8   53.57   32.33
 -13   5   8   -4.49   31.40
  13   5  -8   39.33    7.07
  13   5  -8   41.90    6.71
  13   5  -8   40.53   30.18
  11  -5  -8   30.83    6.54
 -11  -5   8   68.56   37.91
  11  -5  -8   18.67   28.80
  11   5  -8   40.18   30.69
  11   5  -8   42.80    7.03
  11   5  -8   34.32    5.96
 -11   5   8    2.68   30.14
  -9  -5   8   45.79   25.95
   9  -5  -8   35.13   27.67
   9  -5  -8    9.64    3.94
   9   5  -8   11.50   23.52
  -9   5   8  -10.32   29.37
   9   5  -8   16.24    3.80
   9   5  -8   15.26    4.57
   7  -5  -8   41.39   28.58
   7  -5  -8   22.77    5.69
  -7  -5   8  -14.81   18.21
   7   5  -8    3.88   23.05
   7   5  -8   17.62    4.38
  -7   5   8   56.33   31.29
   7   5  -8   17.44    3.75
  -5  -5   8   14.61   25.52
   5  -5  -8   -1.22   26.09
   5  -5  -8   20.12    5.23
   5   5  -8   20.12    3.45
   5   5  -8   30.57   23.16
  -5   5   8   37.96   32.23
   5   5  -8   21.61    4.53
   3  -5  -8   14.09    4.96
  -3  -5   8   16.06   23.86
   3  -5  -8  -11.16   18.62
   3   5  -8   15.42    2.67
  -3   5   8   -6.42   26.44
   3   5  -8   19.37    4.27
   3   5  -8   17.98    4.36
   3   5  -8   34.98   22.51
   1  -5  -8  -17.12   16.90
   1  -5  -8    0.50    2.33
  -1  -5   8   18.22   22.30
   1   5  -8   10.98    3.27
   1   5  -8    9.17    3.41
   1   5  -8    3.38   20.39
  -1   5   8   19.27   23.42
   1  -5   8   40.93   23.86
  -1  -5  -8    3.63   25.49
  -1  -5  -8    6.67    3.45
  -1   5  -8   10.86    3.94
   1   5   8   11.31   25.98
  -1   5  -8    5.23   17.80
  -1   5  -8   14.54    3.58
  -3  -5  -8    4.42   18.37
  -3  -5  -8    1.05    2.47
   3  -5   8   -4.13   22.10
  -3   5  -8   -3.09   14.93
   3   5   8   -2.98   24.88
  -3   5  -8   -1.39    1.33
  -3   5  -8   -0.79    2.04
  -5  -5  -8   -2.22    1.77
  -5  -5  -8   15.95   26.36
   5   5   8   34.56   23.26
  -5   5  -8   -8.11   15.26
  -5   5  -8    1.64    1.69
  -5   5  -8    0.91    2.42
   5   5   8    3.90    3.40
  -7  -5  -8    2.80    2.90
  -7  -5  -8    3.45   19.96
   7   5   8   15.86   29.68
  -7   5  -8    1.30    2.52
  -7   5  -8   11.23   15.51
   7   5   8    4.15    3.41
  -9  -5  -8    5.27   27.49
  -9  -5  -8    0.95    2.52
   9   5   8   11.28    4.77
  -9   5  -8    8.47    4.10
   9   5   8  -14.38   27.53
  -9   5  -8    7.55   16.91
 -11  -5  -8    1.68    2.64
  11  -5   8    4.29   21.99
 -11  -5  -8   21.28   31.76
 -11   5  -8   -0.11    2.36
  11   5   8   -0.54    2.69
 -11   5  -8  -14.13   14.61
 -13  -5  -8    0.41    2.52
 -13  -5  -8  -32.48   32.07
  13  -5   8  -12.20   20.92
  13   5   8   -1.72    2.56
 -13   5  -8    0.65    2.72
 -13   5  -8    2.52   16.16
  13   5   8   14.79   36.04
 -15  -5  -8    9.96    3.49
  15  -5   8   -9.45   21.09
 -15  -5  -8    2.04   34.63
  15   5   8   18.35    6.13
  15   5   8   38.94   40.92
 -15   5  -8    6.09   15.33
 -15   5  -8    9.87    4.28
 -17  -5  -8   20.88   37.92
 -17  -5  -8    7.47    3.19
  17  -5   8    7.15   16.91
 -17  -5  -8    6.66    2.91
 -17  -5  -8    2.83    2.65
  17   5   8    9.65   48.94
  17   5   8    4.37    4.29
 -17   5  -8    7.97   13.98
 -17   5  -8    3.57    3.61
 -19  -5  -8   13.85    3.53
 -19  -5  -8    0.58    1.45
 -19  -5  -8    6.40    3.02
  19   5   8    9.21    5.83
 -19   5  -8    2.93    3.66
 -21  -5  -8   -0.38    0.97
 -21  -5  -8   -0.59    0.91
  21   5   8    1.98    3.82
 -21   5  -8    1.80    3.36
 -23  -5  -8    0.21    0.66
  23  -5   8    0.34    1.53
 -23  -5  -8    0.10    0.67
 -23   5  -8    3.80    4.29
  23   5   8    2.31    4.31
 -25  -5  -8   -0.20    0.72
  25   5   8   -0.18    3.36
 -25   5  -8    0.96    3.40
  27   5   8   -1.10    3.57
 -27   5  -8   15.22    5.93
 -26  -6   8   13.93    6.82
  26  -6  -8    4.19    3.97
  26   6  -8   10.62    5.09
  26   6  -8   13.12    5.28
  24  -6  -8   20.78    6.01
 -24  -6   8   23.03    8.28
 -24  -6   8  -48.94   98.21
  24   6  -8   26.92    6.97
  24   6  -8   23.48    4.11
  24   6  -8   15.89    5.83
  22  -6  -8   68.28   53.60
 -22  -6   8   49.24   59.72
  22  -6  -8   30.12    6.65
  22   6  -8   17.47    5.82
 -22   6   8  -46.77   53.64
  22   6  -8   22.44    6.81
  22   6  -8   30.73    4.94
  22   6  -8   44.56   57.77
  20  -6  -8   48.36    8.31
  20  -6  -8   29.78   47.99
 -20  -6   8   49.96   51.78
  20   6  -8   36.13    7.53
 -20   6   8  -52.84   56.10
  20   6  -8   50.32    9.07
  20   6  -8    6.98   48.53
  18  -6  -8   64.40    9.77
  18  -6  -8   78.57   44.34
 -18  -6   8    2.79   53.99
  18   6  -8   68.01   11.10
 -18   6   8    6.31   44.75
  18   6  -8   55.72    9.20
  18   6  -8   68.14   44.03
  16  -6  -8   67.42    9.99
 -16  -6   8   83.30   51.18
  16  -6  -8   72.90   37.21
 -16   6   8   68.69   10.06
  16   6  -8   93.61    9.69
  16   6  -8   83.23   43.18
  16   6  -8   84.73    9.42
 -14  -6   8   64.91   46.42
  14  -6  -8   98.97   39.30
  14  -6  -8  106.93   10.70
  14   6  -8  123.54   10.94
 -14   6   8   32.50   37.18
  14   6  -8  116.49   43.62
  14   6  -8  122.77   10.77
 -14   6   8  111.42   11.72
 -12  -6   8  208.62   53.73
  12  -6  -8  209.24   48.38
  12  -6  -8  174.77   13.92
  12   6  -8  190.10   48.75
  12   6  -8  171.32   13.51
  12   6  -8  176.02   12.03
  12   6  -8  155.67   12.28
  10  -6  -8  253.17   54.18
 -10  -6   8  268.84   57.92
  10  -6  -8  237.09   16.56
  10   6  -8  259.99   52.50
  10   6  -8  214.68   15.48
  10   6  -8  227.06   14.51
  10   6  -8  226.27   14.55
 -10   6   8  174.68   50.95
   8  -6  -8  366.81   61.93
   8  -6  -8  249.10   17.45
  -8  -6   8  340.07   60.75
  -8   6   8  359.47   62.68
   8   6  -8  282.50   48.99
   8   6  -8  234.73   14.66
   8   6  -8  257.79   16.61
   8   6  -8  246.15   15.67
  -6  -6   8  160.82   43.80
   6  -6  -8  270.33   49.65
   6  -6  -8  246.31   16.61
   6   6  -8  205.96   12.43
   6   6  -8  196.94   13.89
   6   6  -8  224.66   14.60
   6   6  -8  228.46   43.93
  -6   6   8  211.48   50.58
   4  -6  -8  372.88   62.33
  -4  -6   8  274.81   50.31
   4  -6  -8  309.07   20.01
  -4   6   8  266.20   53.60
   4   6  -8  296.82   15.37
   4   6  -8  325.07   18.77
   4   6  -8  305.43   18.25
   4   6  -8  319.44   49.95
   2  -6  -8  479.48   28.89
   2  -6  -8  640.92   70.29
  -2  -6   8  493.84   60.30
   2   6  -8  563.79   28.47
   2   6  -8  523.97   27.20
  -2   6   8  534.26   68.79
   2   6  -8  556.50   57.50
   0  -6  -8  387.23   22.88
   0  -6  -8  355.44   61.48
   0   6   8  358.63   62.99
   0   6  -8  397.58   47.19
   0   6  -8  355.25   19.93
   0   6  -8  357.92   21.26
  -2  -6  -8  329.30   59.37
  -2  -6  -8  277.58   19.03
  -2   6  -8  316.66   46.14
  -2   6  -8  282.23   18.41
  -2   6  -8  325.16   16.97
   2   6   8  255.16   56.42
   4  -6   8  442.44   55.74
  -4  -6  -8  364.34   23.38
  -4  -6  -8  377.82   63.75
  -4   6  -8  398.93   20.22
   4   6   8  512.58   74.70
  -4   6  -8  411.04   45.45
   4   6   8  422.54   25.13
  -4   6  -8  382.05   23.01
   6  -6   8  353.09   52.39
  -6  -6  -8  467.89   69.08
  -6  -6  -8  352.02   22.64
   6   6   8  380.60   24.22
   6   6   8  294.89   62.64
  -6   6  -8  402.65   23.29
  -6   6  -8  418.77   43.65
  -8  -6  -8  286.93   59.26
  -8  -6  -8  322.60   20.48
   8  -6   8  371.17   58.46
  -8   6  -8  315.54   39.45
  -8   6  -8  327.23   20.70
   8   6   8  350.03   66.50
   8   6   8  313.11   21.66
  10  -6   8  169.90   37.56
 -10  -6  -8  211.67   51.85
 -10  -6  -8  248.25   16.79
  10   6   8  230.00   18.22
 -10   6  -8  288.69   34.91
 -10   6  -8  238.38   17.11
 -12  -6  -8  178.22   13.70
 -12  -6  -8  227.70   53.65
  12  -6   8  168.83   35.05
 -12   6  -8  193.21   30.80
  12   6   8  126.32   52.51
 -12   6  -8  197.28   15.20
  12   6   8  159.41   15.30
  14  -6   8  108.71   29.90
 -14  -6  -8   93.12   45.23
 -14  -6  -8  125.25   11.19
  14   6   8   99.10   53.74
 -14   6  -8  152.95   26.46
  14   6   8  119.23   13.12
 -14   6  -8  139.99   12.86
 -16  -6  -8   96.25    9.61
 -16  -6  -8   69.24   46.61
  16  -6   8   52.43   20.26
 -16   6  -8  122.66   12.13
  16   6   8  100.12   57.37
  16   6   8  118.97   13.24
 -18  -6  -8  102.94    9.38
 -18  -6  -8  101.71    8.37
 -18   6  -8  106.75   11.92
  18   6   8   96.60   14.57
 -20  -6  -8   58.59    6.63
  20   6   8   75.45   13.13
 -20   6  -8   61.91   10.77
 -22   6  -8   33.23    8.64
  22   6   8   39.80    9.75
  24   6   8   20.39    8.22
 -24   6  -8   23.80    6.66
 -26   6  -8   20.21    6.81
  26   6   8   17.23    7.26
  25  -7  -8    7.91    4.69
 -25  -7   8    3.53    5.83
  25   7  -8    6.21    5.32
  25   7  -8    6.69    4.95
 -23  -7   8  -65.25  107.21
 -23  -7   8    6.93    6.18
  23  -7  -8    5.13    3.90
  23   7  -8    7.38    2.52
  23   7  -8    2.44    3.65
  23   7  -8    1.64    3.99
 -21  -7   8   88.58   83.61
  21  -7  -8   36.32   62.02
  21  -7  -8   21.20    5.53
  21   7  -8    5.87    4.36
 -21   7   8   96.43   74.28
  21   7  -8   51.37   60.54
  21   7  -8   15.14    5.48
 -19  -7   8  -17.85   65.88
  19  -7  -8   44.44   52.32
  19  -7  -8   11.58    5.17
  19   7  -8    5.09    4.02
  19   7  -8   -0.38   50.23
 -19   7   8   -2.88   51.47
  19   7  -8    4.33    4.14
  19   7  -8   11.32    3.33
  17  -7  -8   10.43    4.64
  17  -7  -8    6.42   45.86
 -17  -7   8   -0.41   44.21
  17   7  -8    2.85    3.48
  17   7  -8    4.00    2.49
  17   7  -8   14.24    5.11
 -17   7   8   43.96   55.93
  17   7  -8  -24.87   44.39
 -17   7   8    0.64    1.94
  15  -7  -8   18.34    5.36
  15  -7  -8   -2.44   36.47
 -15  -7   8   56.49   56.55
  15   7  -8   12.00    4.26
  15   7  -8   -9.48   41.44
  15   7  -8    6.58    4.27
  15   7  -8    9.63    3.20
  13  -7  -8   -7.31   41.65
  13  -7  -8   18.06    5.40
 -13  -7   8   -6.45   45.25
  13   7  -8   24.13    5.60
  13   7  -8   21.04    4.48
 -13   7   8  -14.14   39.96
  13   7  -8   62.64   39.15
  13   7  -8   24.99    6.07
 -11  -7   8  -13.45   39.41
  11  -7  -8   -2.55   34.77
  11  -7  -8   18.99    5.71
 -11   7   8  -23.57   37.14
  11   7  -8   17.86    5.26
  11   7  -8   -2.98   24.06
  11   7  -8   14.69    4.27
  11   7  -8   11.11    3.37
  -9  -7   8   58.29   37.14
   9  -7  -8    6.04    3.74
   9  -7  -8   -9.73   32.06
   9   7  -8  -32.70   21.14
   9   7  -8    8.15    3.26
   9   7  -8   10.56    4.08
  -9   7   8   19.00   37.88
   9   7  -8    2.82    2.46
   7  -7  -8    4.14   35.24
   7  -7  -8    0.41    2.36
   7   7  -8  -17.55   20.10
  -7   7   8    8.23   28.51
   7   7  -8   -0.73    1.42
   7   7  -8    1.14    1.81
   7   7  -8    1.96    2.87
   5  -7  -8    6.11   33.18
   5  -7  -8    6.63    3.87
   5   7  -8    5.18    1.96
   5   7  -8   -5.18   24.65
  -5   7   8  -15.37   35.03
   5   7  -8    6.08    3.32
   5   7  -8    1.42    2.16
   3  -7  -8   17.12    5.02
   3  -7  -8   13.00   33.98
   3   7  -8    4.08    2.95
  -3   7   8   -7.79   34.66
   3   7  -8    6.49   22.69
   3   7  -8    5.75    3.08
   1  -7  -8    1.26    2.84
  -1  -7   8    8.86   28.01
   1  -7  -8    3.31   26.80
   1   7  -8    1.39   20.33
   1   7  -8    1.23    2.54
  -1   7   8  -12.06   34.21
   1   7  -8    3.09    2.84
  -1  -7  -8   49.35   35.51
   1  -7   8  -14.41   25.13
  -1  -7  -8    2.67    3.33
  -1   7  -8   26.93   25.30
  -1   7  -8    9.98    3.37
   1   7   8   19.36   36.57
  -1   7  -8    8.34    3.73
  -3  -7  -8  -31.40   31.90
  -3  -7  -8    5.39    3.80
   3  -7   8   23.54   26.01
  -3   7  -8    0.65    2.60
  -3   7  -8    3.88   19.95
  -3   7  -8    3.45    2.37
   3   7   8   24.42   35.12
  -5  -7  -8    8.98    4.32
   5  -7   8   30.79   25.86
  -5  -7  -8   26.14   37.08
   5   7   8   22.95   29.04
  -5   7  -8    4.55    3.41
  -5   7  -8  -13.68   20.47
   5   7   8    3.59    3.59
  -7  -7  -8   17.13    5.35
  -7  -7  -8   63.59   37.26
   7  -7   8   14.44   26.05
  -7   7  -8   16.71   20.76
   7   7   8   16.24   31.03
   7   7   8   11.86    5.11
  -7   7  -8   13.05    4.53
  -9  -7  -8  -23.21   36.69
  -9  -7  -8   17.56    5.70
   9  -7   8   -9.41   27.69
  -9   7  -8   19.59    5.90
  -9   7  -8  -22.20   20.63
   9   7   8   17.45    6.24
   9   7   8   53.36   55.08
  11  -7   8   18.53   25.84
 -11  -7  -8   -4.75   39.66
 -11  -7  -8    1.30    2.96
 -11   7  -8   28.37   21.38
 -11   7  -8    4.63    3.73
  11   7   8   10.43    5.45
  11   7   8   -2.77   43.93
  13  -7   8   15.97   25.41
 -13  -7  -8  -20.56   46.21
 -13  -7  -8    8.32    4.31
  13   7   8   12.26    5.89
  13   7   8   13.33   48.00
 -13   7  -8    3.85    3.52
 -15  -7  -8  -24.09   46.49
  15  -7   8   18.81   27.77
 -15  -7  -8   13.81    4.74
 -15   7  -8    6.37    4.40
  15   7   8   15.41    5.63
  15   7   8   43.35   58.67
 -17  -7  -8   13.13    4.34
  17   7   8   13.95    6.27
 -17   7  -8   10.58    5.07
 -19  -7  -8   12.25    4.11
 -19   7  -8    8.79    4.56
  19   7   8    1.04    4.53
 -21  -7  -8    2.75    3.14
 -21  -7  -8    0.18    0.76
 -21   7  -8    9.46    5.21
  21   7   8    0.14    3.90
 -23  -7  -8    0.27    1.30
  23   7   8    4.57    5.48
 -23   7  -8    1.19    3.75
 -25   7  -8   -0.64    3.52
  25   7   8   -1.28    3.73
 -24  -8   8   16.39    8.63
  24  -8  -8   12.72    5.73
  24   8  -8    7.40    5.42
  24   8  -8   10.16    5.93
  22  -8  -8   25.33    6.28
 -22  -8   8   21.11    7.82
  22   8  -8   20.25    7.16
  22   8  -8   24.41    5.79
  22   8  -8   23.72    7.64
  20  -8  -8   28.53    6.70
 -20  -8   8   30.55    9.09
  20   8  -8  -22.64   47.85
  20   8  -8   27.27    7.56
  20   8  -8   23.24    6.95
  20   8  -8   30.53    4.78
  18  -8  -8   -0.18   48.11
  18  -8  -8   38.23    8.28
 -18   8   8   41.99   57.77
  18   8  -8   40.43   56.54
  18   8  -8   37.24    8.27
  18   8  -8   29.52    7.05
  18   8  -8   44.24    4.96
  16  -8  -8   42.05   47.30
  16  -8  -8   58.52   10.03
  16   8  -8   49.03   51.93
 -16   8   8  -52.88   49.44
  16   8  -8   53.27    9.33
  16   8  -8   55.63    9.51
  16   8  -8   53.41    5.86
  14  -8  -8  -39.71   49.79
  14  -8  -8   71.07   11.20
 -14   8   8  -29.69   46.70
  14   8  -8   83.07   49.78
  14   8  -8   79.62   11.90
  14   8  -8   82.75    7.62
  14   8  -8   81.05    9.06
  12  -8  -8  114.33   11.63
  12  -8  -8   91.51   48.78
  12   8  -8  113.04    9.19
 -12   8   8  -38.41   44.36
  12   8  -8  129.17   48.49
  12   8  -8   97.84    9.74
  12   8  -8  107.89   11.18
  10  -8  -8  117.75   11.95
  10  -8  -8  136.83   50.77
 -10  -8   8  161.72   56.21
  10   8  -8  137.13   10.42
  10   8  -8  103.12    9.55
 -10   8   8   -8.30   43.47
  10   8  -8  133.35   12.06
  10   8  -8  118.60   45.77
   8  -8  -8  123.00   12.08
   8  -8  -8  163.54   46.76
  -8  -8   8  118.46   48.22
   8   8  -8  106.65    8.94
   8   8  -8  141.41   11.95
  -8   8   8  -18.04   40.96
   8   8  -8  126.51   10.32
   8   8  -8   90.84   38.69
  -6  -8   8  211.82   52.48
   6  -8  -8  165.19   13.87
   6  -8  -8   86.47   46.94
   6   8  -8  163.25   12.58
   6   8  -8  212.97   48.96
   6   8  -8  148.93   11.52
   6   8  -8  104.99    8.33
  -4  -8   8  223.58   51.61
   4  -8  -8  202.26   16.18
   4  -8  -8  195.79   55.08
   4   8  -8  180.23   44.32
   4   8  -8  186.47   14.21
   4   8  -8  196.78   14.19
   2  -8  -8  175.79   15.56
   2  -8  -8  208.94   56.73
  -2  -8   8  142.59   45.07
   2   8  -8  240.35   48.60
   2   8  -8  206.30   14.55
   2   8  -8  200.90   14.10
  -2   8   8  195.74   57.25
   0  -8   8  183.64   45.61
   0  -8  -8  195.98   50.51
   0  -8  -8  186.87   16.03
   0   8   8  151.20   57.32
   0   8  -8  183.50   40.26
   0   8  -8  233.03   15.58
   0   8  -8  210.21   14.10
   2  -8   8  225.16   48.84
  -2  -8  -8  194.07   16.18
  -2  -8  -8  188.40   58.37
   2   8   8  188.21   60.60
  -2   8  -8  238.75   46.26
  -2   8  -8  216.88   15.54
  -4  -8  -8  187.93   58.71
   4  -8   8  115.79   39.59
  -4  -8  -8  181.56   15.10
  -4   8  -8  150.66   35.01
   4   8   8   83.34   44.52
   4   8   8  181.19   15.97
  -4   8  -8  176.06   13.97
  -6  -8  -8  145.18   47.96
   6  -8   8  212.20   46.43
  -6  -8  -8  179.19   15.20
  -6   8  -8  181.73   14.85
   6   8   8   75.32   52.66
  -6   8  -8  225.89   41.40
   6   8   8  207.75   17.04
  -8  -8  -8  109.70   55.84
  -8  -8  -8  198.77   15.64
   8  -8   8   95.92   39.18
   8   8   8  125.57   57.57
  -8   8  -8  101.90   32.28
   8   8   8  185.24   16.43
  -8   8  -8  194.85   15.27
 -10  -8  -8  128.27   12.69
 -10  -8  -8  141.55   54.02
  10   8   8  146.02   14.69
  10   8   8  130.44   62.24
 -10   8  -8  137.53   12.93
 -12  -8  -8  110.09   55.31
 -12  -8  -8   73.50   11.05
  12  -8   8   63.46   40.26
  12   8   8   90.31   14.31
 -12   8  -8  102.94   11.33
  12   8   8  134.39   64.36
  14  -8   8   88.95   36.29
 -14  -8  -8   86.30    9.64
 -14  -8  -8   12.32   55.71
  14   8   8   61.18   11.64
 -14   8  -8   87.46   10.47
  14   8   8  -43.22   62.20
 -16  -8  -8   51.73    8.66
 -16   8  -8   88.31   13.49
  16   8   8   45.18   10.20
 -18  -8  -8   64.87    9.77
 -18   8  -8   49.45    9.64
  18   8   8   56.34   12.84
 -20  -8  -8   40.56    7.66
 -20   8  -8   44.84    9.45
  20   8   8   51.40   12.29
 -22  -8  -8   25.11    5.70
 -22   8  -8   31.20    8.66
  22   8   8   19.94    7.59
 -21  -9   8   14.33    7.85
  21  -9  -8    7.54    3.97
  21   9  -8    6.83    5.16
  21   9  -8   13.34    5.61
 -19  -9   8    7.34    6.21
 -19  -9   8  154.24   97.65
  19   9  -8    9.36    5.55
 -17  -9   8   25.83   82.15
  17  -9  -8    2.96    3.98
  17   9  -8    5.83    2.73
  17   9  -8    2.73    3.42
  17   9  -8  -54.84   62.87
  17   9  -8    6.89    5.17
 -15  -9   8   51.82   73.25
  15  -9  -8   -1.42   50.67
  15  -9  -8   13.68    5.24
  15   9  -8    4.61    3.78
  15   9  -8    4.52    4.42
  15   9  -8   15.41    3.58
  15   9  -8   16.84   57.97
 -15   9   8   11.13   62.99
  13  -9  -8   61.56   60.22
 -13  -9   8   66.20   65.20
  13   9  -8   48.11   51.95
 -13   9   8   32.32   56.75
  11  -9  -8   29.82   58.00
 -11  -9   8   53.19   57.62
  11   9  -8   -5.95   47.18
 -11   9   8   83.84   65.67
  -9  -9   8  -29.25   48.14
   9  -9  -8  -14.79   50.20
   9  -9  -8    9.96    5.31
  -9   9   8   15.65   50.26
   9   9  -8   16.24   32.86
   9   9  -8   15.99    5.66
   9   9  -8   15.64    4.48
  -7  -9   8   12.90   43.93
   7  -9  -8   10.51    5.36
   7  -9  -8   75.50   50.26
   7   9  -8    2.84   37.48
   7   9  -8   17.94    5.29
  -7   9   8   60.91   51.83
   7   9  -8   14.09    4.53
   5  -9  -8   12.91   48.65
  -5  -9   8   57.27   45.91
   5  -9  -8   16.52    5.67
   5   9  -8    3.81    3.54
   5   9  -8   18.27   35.49
  -5   9   8  -20.69   47.62
   5   9  -8   10.65    3.65
   3  -9  -8  -31.64   43.88
  -3  -9   8   14.41   38.84
   3  -9  -8   11.60    5.09
   3   9  -8  -15.53   31.25
  -3   9   8   47.09   50.63
   3   9  -8   31.10    6.52
   3   9  -8   20.97    5.26
   1  -9  -8  -20.24   43.43
  -1  -9   8    4.09   40.50
   1  -9  -8   13.93    5.64
   1   9  -8   15.30    4.56
   1   9  -8   12.11    4.20
  -1   9   8   14.89   51.68
   1   9  -8  -10.79   33.66
  -1  -9  -8   13.50   47.26
   1  -9   8    8.70   31.10
  -1  -9  -8    0.42    2.99
  -1   9  -8    4.16   32.96
   1   9   8  -28.94   35.84
  -1   9  -8    6.72    3.62
  -3  -9  -8    9.48   47.24
  -3  -9  -8    4.78    3.98
  -3   9  -8   16.92   31.11
   3   9   8   69.97   58.32
  -3   9  -8   11.23    4.68
  -5  -9  -8   10.05    5.40
  -5  -9  -8    6.60   39.19
   5   9   8   17.00    5.78
  -5   9  -8    5.67    3.78
   5   9   8  -69.52   54.34
  -7  -9  -8   -1.69   53.98
  -7  -9  -8    3.56    4.12
   7   9   8   -0.99    3.33
   7   9   8  -17.44   57.75
  -7   9  -8    5.55    4.28
  -9  -9  -8    7.38   53.76
   9  -9   8   -1.09   44.91
  -9  -9  -8    4.45    4.36
   9   9   8    1.58    4.14
   9   9   8    6.96   62.79
  -9   9  -8    0.59    3.33
 -11  -9  -8    1.20    3.90
  11  -9   8  -42.73   45.08
 -11  -9  -8   63.26   61.52
 -11   9  -8   -1.09    2.80
  11   9   8 -109.23   49.12
  11   9   8    4.94    5.03
  13  -9   8   18.09   40.56
 -13  -9  -8   -0.19   64.42
 -13  -9  -8    3.02    3.86
 -13   9  -8    4.92    4.35
  13   9   8   -0.01    4.11
  13   9   8  -95.08   75.16
 -15  -9  -8    4.68    4.48
  15  -9   8   -3.02   31.54
  15   9   8    6.10    5.26
 -15   9  -8   -0.15    3.38
 -17  -9  -8    0.46    1.00
 -17  -9  -8    9.50    4.99
 -17   9  -8   -1.39    2.74
  17   9   8    1.47    4.07
 -19  -9  -8    1.24    3.32
 -19   9  -8    2.48    4.38
  19   9   8    3.85    5.14
 -21  -9  -8    1.79    3.49
 -21   9  -8   -2.17    3.21
  21   9   8    4.48    6.02
 -20 -10   8    3.53    6.75
  20 -10  -8   19.62    6.10
  20  10  -8    9.28    6.32
  20  10  -8   20.73    7.25
  18 -10  -8   28.06    7.51
 -18 -10   8   37.22   11.03
 -18 -10   8 -116.90  110.42
  18  10  -8    8.62    5.46
  18  10  -8   27.17    6.73
  18  10  -8   29.33    7.58
 -16 -10   8 -111.50   70.97
 -16 -10   8   44.67   11.93
  16 -10  -8   33.48    8.16
 -16 -10   8  -59.05  129.29
  16  10  -8   31.14    7.32
  16  10  -8   32.99    8.68
  14 -10  -8   47.24    9.83
 -14 -10   8   30.95   86.41
  14  10  -8   49.24    5.88
  14  10  -8   45.83    9.80
  12 -10  -8   56.20   10.55
 -12 -10   8  -52.08   74.06
  12  10  -8   64.30    7.06
 -12  10   8   40.88   69.25
  12  10  -8   69.69   11.74
  10 -10  -8   78.53   11.99
 -10 -10   8   49.81   69.35
  10 -10  -8   31.21   72.11
 -10  10   8    3.49   63.76
   8 -10  -8  105.18   65.71
  -8 -10   8   89.05   65.43
   8 -10  -8  105.84   11.64
   8  10  -8   73.31    8.35
   8  10  -8   91.70   12.90
  -8  10   8   61.50   62.16
   6 -10  -8  132.69   13.42
   6 -10  -8  114.69   63.29
   6  10  -8  103.26   10.27
  -6  10   8  -60.40   61.40
   6  10  -8  123.78   12.02
   4 -10  -8  121.63   16.11
   4 -10  -8  115.10   68.49
   4  10  -8  121.87   11.10
   4  10  -8  117.60   11.60
  -4  10   8   -9.06   63.60
   2 -10  -8  149.59   66.42
  -2  10   8    9.40   47.76
   2  10  -8  132.57   11.81
   0 -10  -8   81.30   62.91
   0 -10  -8  128.31   13.45
   0  10   8  -21.36   63.32
  -2 -10  -8   33.34   59.58
   2 -10   8  133.86   75.13
   2  10   8  -16.32   67.02
  -4 -10  -8   70.94   63.49
   4 -10   8  108.96   69.17
  -4 -10  -8  119.07   12.86
  -4  10  -8  114.54   11.72
   4  10   8  -65.22   67.68
   6 -10   8  116.31   65.99
  -6 -10  -8  122.02   16.14
  -6 -10  -8  138.78   72.43
   6  10   8  105.61   16.45
  -6  10  -8  105.88   11.62
  -8 -10  -8   93.39   13.83
  -8 -10  -8   40.81   69.64
   8 -10   8   48.78   55.89
   8  10   8   99.85   16.03
   8  10   8    0.12   82.28
  -8  10  -8   87.57   10.63
 -10 -10  -8  160.73   79.18
 -10 -10  -8   80.91   12.79
  10 -10   8   99.02   58.54
 -10  10  -8   64.14   11.25
  10  10   8   52.46   11.88
  10  10   8   66.40   66.54
 -12 -10  -8  147.74   79.09
  12 -10   8   44.73   54.13
 -12 -10  -8   57.13   10.15
 -12  10  -8   59.64   10.64
  12  10   8   55.52   11.39
  12  10   8  129.18  100.53
 -14 -10  -8   47.47    9.19
 -14  10  -8   47.95   10.05
  14  10   8   48.28   10.18
 -16 -10  -8   35.45    8.32
  16  10   8   27.18    8.28
 -16  10  -8   42.47    9.34
 -18 -10  -8   19.06    6.15
  18  10   8   25.13    8.80
 -18  10  -8   22.72    7.23
 -15 -11   8   19.29    9.10
  15 -11  -8   12.73    6.20
  15  11  -8    3.64    5.33
  15  11  -8    9.18    3.20
 -13 -11   8    7.56    6.87
  13 -11  -8    2.14    4.31
  13  11  -8    2.79    4.65
  13  11  -8   -0.40    1.40
  13  11  -8   10.14    3.26
  11 -11  -8    4.92    4.98
  11  11  -8    9.92    3.49
  11  11  -8    6.07    4.99
   9 -11  -8    8.46    5.60
   9  11  -8    7.24    5.08
   9  11  -8   12.42    3.99
   7 -11  -8   10.04    5.89
   7  11  -8   13.93    4.05
  -7  11   8 -138.07   78.76
   7  11  -8   -0.11    0.83
   5 -11  -8   18.65    6.62
  -5 -11   8   43.31  152.60
   5 -11  -8   57.22   71.48
  -5  11   8  -37.57   80.85
   3 -11  -8    3.80    4.41
   3 -11  -8   18.01   74.99
  -3 -11   8   76.27   97.54
   3  11  -8    9.32    3.88
  -3  11   8  -44.44   78.68
   1 -11  -8   10.43    5.03
  -1 -11   8  -83.97   69.77
   1 -11  -8   13.54   69.82
  -1  11   8   -4.55   81.23
   1  11  -8    6.89    4.37
  -1 -11  -8    6.09    4.59
  -1 -11  -8  -70.86   71.24
   1 -11   8  -16.14   70.81
  -1  11  -8    4.86    3.81
   1  11   8   57.77   83.88
  -3 -11  -8  -12.36   54.97
   3 -11   8   29.61   68.32
  -3 -11  -8    1.44    3.94
   3  11   8   81.70   88.80
  -3  11  -8    1.29    2.74
  -5 -11  -8    1.94    3.94
   5 -11   8  -51.45   79.60
  -5 -11  -8   -1.21   81.03
  -5  11  -8   16.43    5.39
  -7 -11  -8  -58.77   60.62
  -7 -11  -8   -2.93    3.18
   7 -11   8  -34.17  109.95
  -7  11  -8    6.86    4.54
   7  11   8    0.66    3.93
   7  11   8  -48.69   96.28
  -9 -11  -8  -40.60   86.16
  -9 -11  -8    1.63    3.92
   9  11   8    1.83    4.02
   9  11   8  -30.91  103.10
  -9  11  -8    0.00    2.97
 -11 -11  -8    0.10    4.11
  11 -11   8    9.43   98.91
 -11  11  -8    3.45    4.07
  11  11   8    6.62    5.88
  11  11   8 -283.07  127.70
 -13 -11  -8   -0.91    3.93
 -13  11  -8    1.81    3.84
  13  11   8   16.59    6.66
 -15 -11  -8    3.63    4.66
  15  11   8    3.56    5.98
 -15  11  -8    0.94    3.84
 -12 -12   8   17.58    8.27
  12 -12  -8   31.16    8.86
  12  12  -8   27.13    5.25
 -10 -12   8   62.10   14.18
  10 -12  -8   49.09   10.81
  10  12  -8   40.92    6.97
  -8 -12   8   47.30   12.05
   8 -12  -8   39.32    9.72
   8  12  -8   68.77    8.11
   6 -12  -8   67.43   12.27
   6  12  -8   66.66    9.82
   4 -12  -8   76.31   13.50
   4  12  -8   77.17    9.12
   2 -12  -8   56.53   11.25
   2  12  -8   83.84    9.43
   0 -12  -8   84.93   13.49
   0  12  -8   72.70   10.79
  -2 -12  -8   86.45   14.45
  -2  12  -8   62.37    9.94
  -4 -12  -8   58.32   11.82
  -4  12  -8   68.57   10.52
  -6 -12  -8   69.94   13.38
  -6  12  -8   79.61   12.91
  -8 -12  -8   36.60    8.61
   8  12   8   59.92   12.76
  -8  12  -8   53.35    9.46
 -10 -12  -8   36.84    8.95
 -10  12  -8   45.63    9.41
  10  12   8   29.82    8.71
  28   0  -9    3.33    3.75
 -28   0   9    0.12    2.05
  28   0  -9    1.89    3.77
  26   0  -9    9.41    5.03
  26   0  -9    8.84    4.54
  24   0  -9   15.14    5.14
  24   0  -9   10.57   57.54
 -24   0   9   23.56   66.48
  24   0  -9    5.33    3.85
  22   0  -9   12.33    4.22
  22   0  -9   61.55   47.02
  22   0  -9   10.09    4.42
 -22   0   9  -28.53   58.07
 -20   0   9   -8.51   49.16
  20   0  -9   24.71    6.11
  20   0  -9   23.96   38.63
  18   0  -9   16.54   35.79
 -18   0   9   16.99   45.82
  18   0  -9   52.10    8.25
 -16   0   9   12.99   41.44
  16   0  -9   45.46    7.83
  16   0  -9   52.56   35.23
 -14   0   9   25.29   28.25
  14   0  -9   73.80   35.36
  14   0  -9   41.30    7.18
 -12   0   9   44.79   35.95
  12   0  -9   73.73    9.56
  12   0  -9   26.78   28.67
  10   0  -9   90.37   34.19
 -10   0   9  195.51   48.05
  10   0  -9   96.88    8.97
   8   0  -9   48.22   27.38
   8   0  -9   58.31    6.49
   8   0  -9   59.85    6.57
  -8   0   9   26.89   25.37
   6   0  -9   10.80    3.46
   6   0  -9   16.91    4.47
   6   0  -9    2.43   20.03
  -6   0   9   17.77   21.91
   4   0  -9   44.15    6.71
   4   0  -9   13.40   22.08
   4   0  -9   57.06    7.84
  -4   0   9   71.80   28.10
   2   0  -9   23.00   21.55
   2   0  -9   22.73    4.53
   2   0  -9   20.05    4.43
  -2   0   9   52.71   31.49
   0   0  -9    3.09    2.54
   0   0   9   12.41   24.29
   0   0  -9    4.90    2.59
   0   0  -9    1.02   13.37
  -2   0  -9    3.11   13.61
   2   0   9   27.70   23.59
  -2   0  -9   22.83    4.57
  -2   0  -9   29.42    5.52
  -4   0  -9   38.13    6.43
   4   0   9   54.31   28.57
  -4   0  -9   28.89   22.50
  -4   0  -9   46.20    5.05
   6   0   9   82.40   29.66
  -6   0  -9   17.03   20.36
  -6   0  -9   44.62    6.96
  -6   0  -9   44.03    4.88
  -8   0  -9   42.43    4.46
  -8   0  -9   34.18    6.21
   8   0   9   33.85   24.04
  -8   0  -9   30.43   22.31
 -10   0  -9   16.19    4.07
  10   0   9   17.47    4.04
 -10   0  -9   22.04   22.18
 -10   0  -9   17.37    3.26
 -12   0  -9   29.39    6.28
 -12   0  -9    2.87   23.26
 -12   0  -9   35.54    3.43
 -12   0  -9   38.96    4.19
  12   0   9    7.20   28.15
  12   0   9   32.27    5.65
 -12   0  -9   41.82    6.37
 -14   0  -9   36.75    7.40
  14   0   9   21.53   26.68
 -14   0  -9   34.44    5.75
 -14   0  -9    0.98   21.26
  14   0   9   39.76    6.34
  16   0   9    1.67    2.53
 -16   0  -9    5.50    2.62
  16   0   9    1.22   30.80
 -16   0  -9   -0.01    2.64
 -16   0  -9   -0.95   25.31
 -18   0  -9    1.59    3.11
 -18   0  -9   -7.42   27.25
  18   0   9   16.02    4.29
  20   0   9    2.81    3.14
 -20   0  -9   20.75    5.86
 -22   0  -9   13.04    4.58
  22   0   9    5.87    4.20
 -24   0  -9    4.84    3.78
  24   0   9    2.66    3.49
  26   0   9    4.08    4.07
 -26   0  -9  -35.65   40.41
 -26   0  -9    3.49    3.40
 -28   0  -9    2.55    3.19
  28   0   9    4.77    4.73
  29  -1  -9    8.20    4.22
  29  -1  -9    7.94    4.89
 -29  -1   9   -0.27    2.14
  29   1  -9    1.01    3.07
  29   1  -9    1.11    3.59
 -27  -1   9   12.73    5.61
  27  -1  -9    7.29    4.42
  27  -1  -9   16.86    5.48
  27   1  -9   11.46    4.94
  27   1  -9   21.40    6.54
 -25  -1   9  -32.57   77.79
  25  -1  -9   21.99    5.95
  25  -1  -9   19.25    6.20
 -25   1   9    3.10   78.27
  25   1  -9   22.99    6.54
  25   1  -9   23.21    5.96
  23  -1  -9  -46.57   42.96
 -23  -1   9   32.39   64.95
  23  -1  -9   24.92    6.23
  23   1  -9  -21.11   47.26
  23   1  -9   19.93    5.66
 -23   1   9  -18.14   60.93
  23   1  -9   27.22    6.28
 -21  -1   9  -93.11   51.89
  21  -1  -9  -18.38   39.63
 -21   1   9  -14.19   49.76
  21   1  -9   16.67   45.69
 -19  -1   9  -14.12   49.52
  19  -1  -9   82.21    8.84
  19  -1  -9  138.88   43.88
 -19   1   9   52.79   51.40
  19   1  -9   51.52   33.67
  19   1  -9   83.02    9.21
  19   1  -9   79.91    8.69
 -17  -1   9   21.86   44.85
  17  -1  -9   27.75   33.88
 -17   1   9  -21.19   40.87
  17   1  -9   69.98   40.52
 -15  -1   9  167.12   53.66
  15  -1  -9  133.76   40.61
  15  -1  -9  127.33   10.56
 -15   1   9  102.44   47.79
  15   1  -9  114.88   10.39
  15   1  -9   96.35   37.47
  13  -1  -9  195.26   46.39
  13  -1  -9  239.00   15.91
 -13  -1   9  307.66   64.57
  13   1  -9  302.23   52.43
 -13   1   9  213.02   53.55
  13   1  -9  230.44   15.53
 -11  -1   9  373.78   64.92
  11  -1  -9  307.33   51.35
  11  -1  -9  307.94   18.36
  11   1  -9  278.62   17.83
  11   1  -9  297.41   51.65
 -11   1   9  311.00   59.40
  -9  -1   9  351.14   63.33
   9  -1  -9  246.63   47.31
   9  -1  -9  309.82   18.63
  -9   1   9  447.09   68.22
   9   1  -9  307.24   18.42
   9   1  -9  330.91   50.77
  -7  -1   9  303.04   60.50
   7  -1  -9  345.54   23.67
   7  -1  -9  464.87   55.87
   7  -1  -9  376.28   21.35
  -7   1   9  424.42   65.46
   7   1  -9  344.15   52.29
   7   1  -9  398.77   21.42
   7   1  -9  399.44   21.29
   5  -1  -9  451.47   25.31
   5  -1  -9  440.80   54.28
  -5  -1   9  520.66   63.46
   5  -1  -9  478.54   24.81
  -5   1   9  374.89   62.35
   5   1  -9  498.09   24.71
   5   1  -9  449.59   24.11
   5   1  -9  419.58   52.17
   3  -1  -9  526.87   53.90
   3  -1  -9  472.46   26.29
  -3  -1   9  455.40   55.75
   3  -1  -9  487.00   25.44
   3   1  -9  502.04   54.27
   3   1  -9  481.93   25.04
   3   1  -9  494.82   25.15
  -3   1   9  503.71   58.92
   1  -1  -9  529.82   26.23
  -1  -1   9  439.21   58.58
   1  -1  -9  517.43   27.42
   1  -1  -9  523.82   56.97
   1   1  -9  640.24   58.66
  -1   1   9  554.86   63.51
   1   1  -9  492.65   25.35
   1   1  -9  443.41   25.13
  -1  -1  -9  597.64   61.38
  -1  -1  -9  592.76   31.06
  -1  -1  -9  594.75   29.31
   1  -1   9  581.84   64.54
  -1   1  -9  600.21   58.49
   1   1   9  612.69   62.22
  -1   1  -9  582.80   28.62
  -1   1  -9  568.02   29.03
  -3  -1  -9  645.70   61.33
   3  -1   9  645.06   67.30
  -3  -1  -9  652.14   31.99
  -3  -1  -9  679.87   34.35
  -3   1  -9  666.49   31.39
  -3   1  -9  640.58   31.97
  -3   1  -9  689.74   61.95
   3   1   9  682.59   70.04
  -5  -1  -9  518.61   56.18
   5  -1   9  480.37   55.08
  -5  -1  -9  443.76   22.85
  -5  -1  -9  461.04   25.35
  -5   1  -9  443.85   22.11
   5   1   9  443.97   56.43
  -5   1  -9  393.20   47.34
  -5   1  -9  428.96   22.77
  -7  -1  -9  516.27   28.36
  -7  -1  -9  535.82   26.07
   7  -1   9  440.43   55.84
  -7  -1  -9  602.05   59.69
   7   1   9  567.23   63.37
  -7   1  -9  511.14   25.75
  -7   1  -9  539.33   25.02
  -7   1  -9  523.98   55.20
  -9  -1  -9  494.66   23.23
  -9  -1  -9  469.05   53.21
  -9  -1  -9  439.38   25.41
   9   1   9  426.49   24.10
  -9   1  -9  540.88   52.08
  -9   1  -9  444.39   22.82
  -9   1  -9  472.43   21.88
  -9   1  -9  483.88   26.09
  11  -1   9  356.55   17.74
 -11  -1  -9  325.62   19.87
 -11  -1  -9  280.46   48.42
 -11  -1  -9  340.80   17.22
  11  -1   9  418.44   50.38
 -11   1  -9  307.11   16.46
 -11   1  -9  377.59   21.36
 -11   1  -9  330.94   15.66
 -11   1  -9  361.14   45.07
  11   1   9  313.55   19.06
  11   1   9  267.10   49.66
 -11   1  -9  325.27   17.31
  13  -1   9  225.44   43.83
 -13  -1  -9  298.02   48.69
 -13  -1  -9  267.83   16.73
 -13  -1  -9  232.26   14.16
 -13  -1  -9  256.49   13.36
  13  -1   9  268.69   14.85
 -13  -1  -9  272.32   17.43
 -13   1  -9  258.93   39.71
  13   1   9  280.74   16.90
 -13   1  -9  239.04   13.95
 -13   1  -9  266.72   17.76
  13   1   9  202.60   47.18
  15  -1   9  197.73   12.57
 -15  -1  -9  193.43    9.67
  15  -1   9  259.33   45.56
 -15  -1  -9  195.51   41.06
 -15  -1  -9  195.33   14.56
  15   1   9  140.42   42.99
 -15   1  -9  149.47   33.89
 -15   1  -9  209.37   15.32
  15   1   9  207.99   14.48
 -15   1  -9  189.81   11.61
  17  -1   9   94.09   36.08
 -17  -1  -9   73.80   34.33
  17  -1   9  119.44    8.95
 -17  -1  -9   98.30    9.93
  17   1   9   53.83   36.51
 -17   1  -9  105.21   29.51
 -17   1  -9   94.31    7.32
 -17   1  -9   92.19   10.16
  17   1   9   99.95    9.72
 -19  -1  -9   88.36    9.56
  19  -1   9   87.04    8.35
 -19   1  -9   99.90   10.23
  19   1   9   77.09    8.85
  21  -1   9  102.77    9.36
 -21  -1  -9   84.13    9.35
 -21   1  -9   75.98    9.40
  21   1   9   95.67   10.21
 -23  -1  -9   49.98    8.19
  23  -1   9   41.05    7.59
  23   1   9   47.37    9.74
 -23   1  -9   61.76    9.81
  25  -1   9   31.09    6.83
 -25  -1  -9   17.64    4.77
 -25   1  -9  -15.85   41.39
 -25   1  -9   20.61    5.86
  25   1   9   20.25    6.54
 -27  -1  -9   18.83    4.85
  27  -1   9   11.67    4.75
 -27  -1  -9  -12.71   84.31
 -27   1  -9    5.39    3.80
  27   1   9   10.93    6.30
  28  -2  -9   13.60    5.07
  28  -2  -9    5.59    4.63
 -28  -2   9    1.98    3.98
  28   2  -9    0.67    3.52
  28   2  -9    1.21    3.23
  26  -2  -9   13.39    4.73
  26  -2  -9    9.03    4.64
  26   2  -9    4.51    4.31
  26   2  -9    8.66    5.13
 -24  -2   9  149.42   78.05
  24  -2  -9   53.72   48.38
  24   2  -9   84.77   58.06
  22  -2  -9   72.89   46.88
 -22  -2   9   79.07   68.47
  22  -2  -9    8.53    4.47
  22   2  -9    4.99    3.52
 -22   2   9   13.78   56.54
  22   2  -9   10.22   45.93
  22   2  -9    7.99    4.31
 -20  -2   9    0.18   52.72
  20  -2  -9   17.89    4.99
  20  -2  -9   14.54   37.99
 -20   2   9  -52.63   48.55
  20   2  -9   12.85   43.57
  20   2  -9   23.58    6.37
  20   2  -9   22.86    5.88
 -18  -2   9   -8.19   51.34
  18  -2  -9   10.97   33.30
  18  -2  -9   17.14    5.04
  18   2  -9   22.98   37.11
  18   2  -9   16.90    4.92
 -18   2   9   26.38   42.91
  18   2  -9   27.81    6.49
 -16  -2   9   79.12   50.48
  16  -2  -9    5.22    3.34
  16  -2  -9   -7.68   29.63
  16   2  -9   -4.20   29.27
  16   2  -9   17.01    5.02
  16   2  -9    8.03    3.47
 -16   2   9   24.68   40.55
 -14  -2   9   10.52   38.50
  14  -2  -9    6.90    3.59
  14  -2  -9  -16.41   25.93
  14   2  -9  -33.58   26.78
  14   2  -9    4.80    2.99
 -14   2   9   24.57   35.77
  14   2  -9   11.01    3.76
  12  -2  -9    7.95    3.58
 -12  -2   9   13.69   24.13
  12  -2  -9   24.41   27.31
 -12   2   9   -4.71   32.82
  12   2  -9  -12.07   24.23
  12   2  -9   11.90    3.96
  10  -2  -9   18.93    5.01
  10  -2  -9    6.00   25.00
 -10  -2   9  -14.51   22.55
  10   2  -9   21.00    4.79
  10   2  -9   42.23   27.94
 -10   2   9  -35.82   31.25
  -8  -2   9   -8.53   28.43
   8  -2  -9   35.69   23.72
   8  -2  -9    9.96    3.73
   8   2  -9   14.43    4.07
  -8   2   9   20.55   32.36
   8   2  -9    0.61   22.00
   6  -2  -9   19.98   23.21
   6  -2  -9   10.74    3.72
  -6  -2   9  -17.76   25.13
   6   2  -9    5.28    2.37
   6   2  -9    2.62    2.36
  -6   2   9    3.40   20.94
   6   2  -9    9.96   15.98
  -4  -2   9   25.59   26.70
   4  -2  -9   35.40    6.17
   4  -2  -9   38.97    8.22
   4  -2  -9    3.38   22.65
   4   2  -9   14.55   20.55
  -4   2   9   43.57   29.90
   4   2  -9   40.97    5.90
   4   2  -9   35.08    5.81
   2  -2  -9   22.28    5.39
   2  -2  -9   23.86    5.32
   2  -2  -9   38.32   25.18
  -2  -2   9   21.29   28.37
   2   2  -9   39.76   23.11
   2   2  -9   35.47    5.24
  -2   2   9   42.65   28.05
   2   2  -9   28.25    5.16
   0  -2  -9   12.34    4.23
   0  -2  -9  -15.57   15.13
   0  -2   9   10.71   24.16
   0  -2  -9    0.40    2.03
   0   2  -9    7.16    2.38
   0   2  -9    0.59   13.54
   0   2  -9    3.07    2.22
   0   2   9   -8.62   23.55
  -2  -2  -9   32.49   23.35
   2  -2   9   15.58   24.00
  -2  -2  -9   40.36    7.74
  -2  -2  -9   31.41    5.49
  -2   2  -9   20.93    4.13
  -2   2  -9   29.92   20.63
   2   2   9   19.36   21.32
  -2   2  -9   21.81    3.98
  -4  -2  -9   28.12   24.77
  -4  -2  -9   15.11    4.19
  -4  -2  -9   18.58    5.44
   4  -2   9   50.78   24.44
   4   2   9   28.71   26.61
  -4   2  -9   19.19    3.64
  -4   2  -9    6.24   18.26
  -4   2  -9   20.31    3.49
  -6  -2  -9    4.19    2.67
  -6  -2  -9    0.99    2.67
   6  -2   9    8.36   20.97
  -6  -2  -9   10.55   22.02
   6   2   9   13.27   24.32
  -6   2  -9   12.43    2.65
  -6   2  -9   14.12    3.19
  -6   2  -9   -4.94   15.96
  -8  -2  -9    8.59    3.12
  -8  -2  -9    6.38   24.57
  -8  -2  -9   13.90    4.69
  -8   2  -9   24.60   17.48
  -8   2  -9    6.17    3.55
   8   2   9   32.06   27.30
  -8   2  -9    7.29    1.92
   8   2   9    5.88    3.02
  -8   2  -9    9.74    2.42
 -10  -2  -9   18.30    3.94
 -10  -2  -9   23.69    6.11
  10  -2   9   14.25   25.14
 -10  -2  -9   19.90   23.76
 -10   2  -9   21.53   19.61
 -10   2  -9   10.70    2.14
 -10   2  -9   15.94    2.25
 -10   2  -9    8.37    4.00
  10   2   9    7.75    3.42
 -12  -2  -9   13.83   25.43
  12  -2   9   22.23   23.40
 -12  -2  -9    5.26    2.49
 -12  -2  -9   16.94    4.24
 -12   2  -9   11.98    2.36
 -12   2  -9    8.53   18.57
 -12   2  -9   16.08    4.68
  12   2   9   19.11    5.40
  12   2   9   16.59   29.33
  14  -2   9   17.12    3.24
 -14  -2  -9  -12.37   25.75
 -14  -2  -9   13.05    4.40
 -14  -2  -9   17.35    3.50
  14  -2   9    5.87   24.60
 -14  -2  -9   12.07    3.31
  14   2   9   21.84   34.53
  14   2   9   17.14    5.18
 -14   2  -9    8.59    3.70
 -14   2  -9   -3.12   18.27
 -16  -2  -9    3.42    3.01
 -16  -2  -9    5.45    1.81
  16  -2   9    3.80    2.24
  16  -2   9  -11.80   27.32
 -16  -2  -9  -25.45   27.62
 -16  -2  -9    0.44    0.86
 -16   2  -9   -0.42   20.73
 -16   2  -9    5.03    3.77
  16   2   9  -19.84   30.42
  16   2   9    4.79    3.58
  18  -2   9   10.49    3.06
 -18  -2  -9    5.61    3.59
 -18   2  -9   -7.08   21.15
 -18   2  -9   14.21    4.91
  18   2   9    5.29    3.83
 -20  -2  -9   10.43    3.85
  20  -2   9    8.42    3.18
 -20   2  -9   14.58    5.15
  20   2   9    7.19    4.69
 -22  -2  -9   15.58    4.78
  22  -2   9   13.10    4.10
 -22   2  -9    8.37    4.53
  22   2   9   19.91    6.16
 -24  -2  -9    3.06    3.26
  24  -2   9    4.36    3.27
 -24   2  -9    1.74    3.32
  24   2   9    1.58    3.44
 -26  -2  -9    2.27    2.76
  26  -2   9    3.83    3.40
  26   2   9    6.97    5.23
 -26   2  -9    6.05    3.36
  28  -2   9    6.03    4.18
  28   2   9   -0.11    3.88
 -28   2  -9    4.82    4.67
  27  -3  -9    4.54    3.85
 -27  -3   9   12.91    6.40
  27   3  -9   17.81    6.15
  27   3  -9   19.06    5.91
  25  -3  -9   30.42    6.31
  25   3  -9   21.45    6.33
  25   3  -9   29.90    6.68
  23  -3  -9   28.03    6.92
  23  -3  -9  -19.12   45.77
 -23  -3   9  -58.72   71.45
  23   3  -9   28.29    6.54
  23   3  -9   45.02   53.71
 -23   3   9  -27.68   59.43
 -21  -3   9  -51.41   62.67
  21  -3  -9   50.36    8.49
  21  -3  -9   71.21   47.86
  21   3  -9   24.41   38.37
  21   3  -9   41.30    7.80
  21   3  -9   52.18    8.86
 -21   3   9   41.13   62.19
 -19  -3   9  -22.32   56.50
  19  -3  -9   90.78   43.41
  19  -3  -9   76.67   10.53
  19   3  -9   56.44    8.94
  19   3  -9   67.95    9.95
  19   3  -9   61.44   44.25
 -19   3   9   -9.00   49.42
 -17  -3   9   15.06   49.70
  17  -3  -9   48.66   38.67
  17   3  -9   -0.02   35.60
 -17   3   9   -3.81   42.65
  15  -3  -9   55.33    8.70
 -15  -3   9  127.00   52.17
  15  -3  -9  102.97   36.60
 -15   3   9   -7.40   38.09
  15   3  -9   58.86    7.05
  15   3  -9   67.63    9.24
  15   3  -9   39.69   30.60
  13  -3  -9  146.04   44.09
 -13  -3   9   62.98   43.38
  13  -3  -9  124.36   10.71
  13   3  -9  204.49   45.20
  13   3  -9  114.75    9.66
  13   3  -9  118.13   10.34
 -13   3   9  181.08   49.68
  11  -3  -9  199.88   14.37
  11  -3  -9  135.53   42.70
 -11  -3   9  167.29   46.33
  11   3  -9  220.71   44.44
 -11   3   9  223.17   51.65
  11   3  -9  184.87   13.32
  11   3  -9  199.31   12.74
   9  -3  -9  160.06   39.82
  -9  -3   9  242.85   53.67
   9  -3  -9  151.83   12.51
  -9   3   9  182.90   52.96
   9   3  -9  178.91   12.47
   9   3  -9  153.81   37.55
   9   3  -9  169.59   11.02
  -7  -3   9  225.53   53.05
   7  -3  -9  248.08   16.63
   7  -3  -9  230.13   47.87
  -7   3   9  341.53   61.24
   7   3  -9  356.30   53.22
   7   3  -9  246.93   15.73
   7   3  -9  258.42   14.25
  -5  -3   9  389.75   64.01
   5  -3  -9  340.06   55.80
   5  -3  -9  359.75   21.30
   5   3  -9  400.42   20.61
   5   3  -9  352.60   53.27
  -5   3   9  323.40   59.73
   5   3  -9  347.20   18.91
   3  -3  -9  398.13   22.10
   3  -3  -9  412.46   61.84
  -3  -3   9  448.61   64.52
   3   3  -9  344.99   20.07
   3   3  -9  373.23   19.10
   3   3  -9  411.17   49.52
  -3   3   9  347.76   62.30
  -1  -3   9  505.73   62.10
   1  -3  -9  445.10   24.79
   1  -3  -9  462.21   58.01
   1   3  -9  634.16   57.61
   1   3  -9  442.95   23.15
   1   3  -9  423.39   21.71
  -1   3   9  503.24   71.91
  -1  -3  -9  486.23   58.81
   1  -3   9  398.88   61.56
  -1  -3  -9  436.81   24.16
  -1   3  -9  460.40   22.66
   1   3   9  473.04   61.39
  -1   3  -9  441.37   50.50
  -1   3  -9  423.79   20.77
   3  -3   9  321.82   52.23
  -3  -3  -9  333.27   54.15
  -3  -3  -9  277.42   17.21
  -3   3  -9  270.01   15.28
  -3   3  -9  275.54   13.11
   3   3   9  381.75   60.47
  -3   3  -9  300.85   44.73
  -5  -3  -9  329.40   54.41
  -5  -3  -9  294.77   17.92
   5   3   9  250.01   52.44
  -5   3  -9  296.33   18.84
  -5   3  -9  358.37   42.36
  -5   3  -9  304.15   15.83
   7  -3   9  220.60   51.24
  -7  -3  -9  279.37   53.10
  -7  -3  -9  296.03   17.18
   7   3   9  286.95   18.15
  -7   3  -9  282.90   18.34
   7   3   9  284.40   54.24
  -7   3  -9  282.83   14.40
  -7   3  -9  215.50   40.24
   9  -3   9  206.05   42.44
  -9  -3  -9  227.57   14.93
  -9  -3  -9  267.35   51.52
   9   3   9  271.40   17.16
  -9   3  -9  253.04   17.25
  -9   3  -9  222.05   38.56
  -9   3  -9  249.18   11.87
 -11  -3  -9  177.59   11.96
  11  -3   9  168.63   39.28
 -11  -3  -9  202.81   45.31
 -11   3  -9  180.53   14.16
 -11   3  -9  163.74   32.59
  11   3   9  183.72   46.82
  11   3   9  181.85   14.03
  13  -3   9  183.04   38.83
 -13  -3  -9  149.41   11.82
 -13  -3  -9  187.50   44.18
 -13  -3  -9  154.44   10.76
 -13   3  -9  142.84   31.11
  13   3   9  175.03   13.89
 -13   3  -9  183.44   14.21
  13   3   9  193.10   47.85
 -15  -3  -9  160.54   12.16
 -15  -3  -9  140.51    9.43
 -15  -3  -9  134.37   40.56
 -15  -3  -9  108.82    9.54
  15  -3   9  113.91   34.38
  15   3   9  163.64   13.50
  15   3   9  244.07   56.59
 -15   3  -9  158.88   13.38
 -15   3  -9  163.55   30.53
  17  -3   9   77.34    5.33
 -17  -3  -9   70.97    8.11
  17  -3   9   50.20   28.93
 -17  -3  -9   40.36   34.73
 -17  -3  -9   74.41    5.80
 -17   3  -9   84.15   24.24
  17   3   9  112.31   50.71
 -17   3  -9   73.87   10.91
  17   3   9   94.33   10.36
  19  -3   9   68.35    5.51
 -19  -3  -9   65.33    7.56
  19   3   9   66.57   10.80
 -19   3  -9   74.30   11.74
  21  -3   9   60.09    5.71
 -21  -3  -9   61.72    7.37
 -21   3  -9   51.83    9.38
  21   3   9   57.73   10.19
  23  -3   9   48.17    5.44
 -23  -3  -9   44.48    7.37
 -23   3  -9   42.49    8.83
  23   3   9   29.81    7.75
  25  -3   9   14.16    4.12
 -25   3  -9   17.91    5.82
  25   3   9   30.54    8.26
  27   3   9   18.77    7.14
 -27   3  -9   18.35    6.24
 -28  -4   9    7.05    6.13
  28   4  -9    3.75    4.45
  26  -4  -9    4.19    4.21
 -26  -4   9    8.02    6.13
  26   4  -9   13.11    5.05
  26   4  -9   -0.99    3.45
 -24  -4   9 -165.99   92.65
  24  -4  -9    3.76    3.53
  24   4  -9   10.79    4.50
  24   4  -9    6.18    4.39
  22  -4  -9   73.56   55.16
  22  -4  -9   23.45    6.13
 -22  -4   9  142.53   79.61
  22   4  -9   17.59    5.58
 -22   4   9  -23.58   67.56
  22   4  -9   24.50   50.60
  22   4  -9   17.97    5.75
  20  -4  -9   26.16    6.10
 -20  -4   9  -47.67   61.90
  20  -4  -9   63.81   42.92
  20   4  -9   25.95    6.28
  20   4  -9   31.30    7.06
  20   4  -9   47.84   46.48
 -20   4   9  -73.29   46.70
  18  -4  -9   19.83    5.57
 -18  -4   9   72.44   60.74
  18  -4  -9   46.74   36.48
  18   4  -9  -18.90   37.49
 -18   4   9   22.43   46.60
  18   4  -9   17.08    5.16
  18   4  -9   21.36    5.89
 -16  -4   9   46.55   41.04
  16  -4  -9  -39.40   31.19
  16  -4  -9   27.44    6.29
  16   4  -9   18.37    5.25
  16   4  -9   -7.36   35.64
  16   4  -9   23.59    5.51
 -16   4   9    5.65   41.72
  14  -4  -9   52.78   32.87
  14  -4  -9   30.39    6.48
 -14  -4   9   17.68   37.32
  14   4  -9   42.88   35.39
  14   4  -9   27.07    6.12
 -14   4   9   26.54   44.00
  14   4  -9   33.57    6.13
 -12  -4   9   94.29   43.42
  12  -4  -9   53.44   34.39
  12  -4  -9   38.22    7.32
  12   4  -9   35.38    6.81
  12   4  -9   38.98    6.42
  12   4  -9   32.35   33.21
 -12   4   9   -1.66   36.86
 -10  -4   9   52.11   32.64
  10  -4  -9   31.41    6.25
  10  -4  -9  -15.65   29.36
  10   4  -9   29.55    6.00
  10   4  -9   46.91   29.55
 -10   4   9   80.04   38.85
  10   4  -9   33.25    5.59
   8  -4  -9   29.33    6.35
   8  -4  -9   32.42   29.80
  -8  -4   9   -3.14   25.01
   8   4  -9   39.95   26.55
   8   4  -9   29.20    4.79
   8   4  -9   36.85    6.25
  -8   4   9   42.70   36.77
   6  -4  -9   32.04    6.75
  -6  -4   9   16.50   31.06
   6  -4  -9   35.06   29.17
  -6   4   9   14.56   33.05
   6   4  -9   32.78    3.86
   6   4  -9   34.05    5.83
   6   4  -9   11.83   24.49
   4  -4  -9   19.16   28.89
   4  -4  -9   36.24    6.96
  -4  -4   9   28.89   23.94
  -4   4   9   71.19   38.31
   4   4  -9   -7.89   22.82
   4   4  -9   39.46    6.44
   4   4  -9   45.79    4.33
   4   4  -9   39.13    3.82
   2  -4  -9   24.72    5.94
   2  -4  -9   53.23   24.08
  -2  -4   9  -50.46   25.74
   2   4  -9   37.26    5.87
   2   4  -9   23.69   23.17
   2   4  -9   40.75    3.63
   2   4  -9   31.96    2.99
  -2   4   9   21.63   23.05
   0  -4   9    8.13   26.68
   0  -4  -9   19.74   28.98
   0  -4  -9   26.94    6.11
   0   4   9   30.77   31.73
   0   4  -9   23.01    2.15
   0   4  -9   14.49   20.88
   0   4  -9   22.27    1.90
   0   4  -9   25.27    4.63
  -2  -4  -9   19.70   22.14
  -2  -4  -9   32.45    6.14
  -2   4  -9   23.54   20.22
  -2   4  -9   25.61    4.49
  -2   4  -9   22.53    5.13
   2   4   9   -5.08   29.44
  -4  -4  -9    6.24    3.18
  -4  -4  -9   33.17   24.27
  -4   4  -9    5.26    3.10
  -4   4  -9   33.92   19.28
  -4   4  -9   11.19    2.99
   4   4   9    2.50   30.60
   6  -4   9   -0.64   25.39
  -6  -4  -9   24.05   31.03
  -6  -4  -9    3.15    2.67
  -6   4  -9   14.34   18.61
   6   4   9    3.82    3.42
  -6   4  -9    3.78    3.31
   6   4   9  -12.21   30.17
  -6   4  -9    1.92    1.71
  -8  -4  -9  -20.13   26.74
  -8  -4  -9    5.82    3.30
   8  -4   9    6.33   22.70
  -8   4  -9    8.00    1.79
  -8   4  -9    6.26    3.63
   8   4   9  -33.85   28.51
   8   4   9    5.96    3.92
  -8   4  -9   19.65   19.55
  10  -4   9   -1.91   24.22
 -10  -4  -9   -9.80   29.49
 -10  -4  -9    2.67    2.71
 -10   4  -9    4.16    3.09
  10   4   9    6.69    3.79
  10   4   9   11.83   52.98
 -10   4  -9   -7.43   17.71
 -12  -4  -9  -17.38   29.73
 -12  -4  -9    7.65    3.35
  12  -4   9   -0.97   25.11
 -12   4  -9    3.95    3.36
 -12   4  -9   -2.26   17.87
  12   4   9    9.05    4.08
  12   4   9   -8.00   35.50
 -14  -4  -9    6.84    2.74
  14  -4   9    6.85   24.69
 -14  -4  -9   47.92   39.87
 -14  -4  -9    1.18    2.63
  14   4   9   94.89   42.18
 -14   4  -9    8.07   19.39
  14   4   9    1.09    3.10
 -14   4  -9    9.25    4.62
 -16  -4  -9    3.01    2.34
  16  -4   9  -12.26   27.41
 -16  -4  -9    9.06   36.42
 -16  -4  -9    3.97    2.98
  16   4   9   22.30   44.15
 -16   4  -9   10.75    4.64
 -16   4  -9   27.37   20.46
  16   4   9    9.14    4.85
 -18  -4  -9    7.80    3.26
 -18  -4  -9    6.93    2.28
  18   4   9    7.90    4.93
 -18   4  -9    7.48    4.73
 -20  -4  -9    0.06    1.05
 -20  -4  -9    1.54    2.56
 -20  -4  -9   -0.21    0.62
  20   4   9    2.21    4.05
 -20   4  -9    3.37    3.75
 -22  -4  -9   11.10    3.61
  22  -4   9    3.65    2.23
 -22   4  -9    7.80    4.25
  22   4   9    6.58    5.26
 -24  -4  -9   -0.07    0.87
 -24   4  -9    2.70    3.93
  24   4   9   -0.55    3.58
 -26   4  -9    3.29    3.96
  26   4   9    5.90    5.00
 -27  -5   9    6.62    6.11
  27  -5  -9    3.47    4.00
  27   5  -9   18.21    6.34
  27   5  -9    8.88    5.43
 -25  -5   9    9.05    6.87
  25  -5  -9   15.38    5.06
  25   5  -9   17.96    6.27
  25   5  -9   11.04    6.27
 -23  -5   9    6.00   70.82
  23  -5  -9   34.46    6.94
  23   5  -9   23.77    6.55
  23   5  -9   17.72    6.12
  21  -5  -9   35.22    7.29
  21  -5  -9   57.89   54.65
 -21  -5   9  -11.39   79.27
  21   5  -9  136.15   62.80
 -21   5   9   26.85   61.40
  21   5  -9   41.27    8.19
  21   5  -9   45.02    8.84
  19  -5  -9   60.32    9.99
 -19  -5   9  -44.30   64.96
  19  -5  -9   37.54   42.99
  19   5  -9   85.20   51.85
  19   5  -9   61.44    9.63
  19   5  -9   60.15   10.00
 -19   5   9  -59.47   88.10
 -17  -5   9  -62.65   42.97
  17  -5  -9   51.41   49.89
  17  -5  -9   80.65   11.24
  17   5  -9  139.61   46.81
  17   5  -9   77.26   10.98
  17   5  -9   75.50   10.85
 -17   5   9  -59.39   46.70
 -15  -5   9   49.40   52.99
  15  -5  -9   92.38   44.45
  15  -5  -9  119.16   11.17
 -15   5   9   46.47   44.27
  15   5  -9   94.43    9.79
  15   5  -9  113.93   46.94
  15   5  -9  120.04   10.86
  13  -5  -9   80.46   37.98
 -13  -5   9  220.93   55.50
  13  -5  -9  165.84   13.33
  13   5  -9  134.98   12.03
  13   5  -9  249.59   54.18
  13   5  -9  139.36   11.29
  11  -5  -9  233.97   49.53
 -11  -5   9  167.53   51.21
  11  -5  -9  230.25   16.31
  11   5  -9  204.65   13.98
  11   5  -9  226.31   15.56
  11   5  -9  270.84   53.37
   9  -5  -9  264.84   18.05
   9  -5  -9  336.20   61.47
  -9  -5   9  281.91   60.09
   9   5  -9  248.23   15.14
   9   5  -9  266.26   16.94
   9   5  -9  232.71   50.27
  -9   5   9  254.40   58.68
  -7  -5   9  206.55   52.42
   7  -5  -9  231.48   16.26
   7  -5  -9  311.73   55.35
  -7   5   9  159.16   49.55
   7   5  -9  194.83   46.22
   7   5  -9  213.54   12.91
   7   5  -9  238.08   15.20
   5  -5  -9  361.16   61.68
  -5  -5   9  262.80   56.24
   5  -5  -9  278.84   18.97
   5   5  -9  296.13   15.32
  -5   5   9  367.42   64.43
   5   5  -9  355.29   54.14
   5   5  -9  286.96   17.59
  -3  -5   9  459.41   67.64
   3  -5  -9  342.20   57.51
   3  -5  -9  408.37   24.12
   3   5  -9  417.34   23.23
   3   5  -9  393.06   18.65
   3   5  -9  401.59   21.99
  -3   5   9  467.59   69.85
   3   5  -9  488.08   57.03
   3   5  -9  386.99   18.65
   1  -5  -9  415.12   24.28
   1  -5  -9  444.45   68.87
  -1   5   9  371.36   64.83
   1   5  -9  411.71   21.85
   1   5  -9  349.44   54.27
   1   5  -9  408.87   23.43
  -1  -5  -9  344.44   21.94
  -1  -5  -9  320.30   61.25
   1   5   9  395.92   64.38
  -1   5  -9  376.13   21.91
  -1   5  -9  332.68   49.28
  -1   5  -9  372.57   19.69
  -3  -5  -9  339.20   21.13
  -3  -5  -9  278.84   58.25
   3  -5   9  291.48   53.98
  -3   5  -9  387.67   46.99
  -3   5  -9  319.80   20.62
   3   5   9  286.88   54.82
  -3   5  -9  366.91   18.43
  -5  -5  -9  342.56   62.74
   5  -5   9  299.77   50.62
  -5  -5  -9  332.15   21.20
  -5   5  -9  354.61   21.65
   5   5   9  328.53   60.32
  -5   5  -9  325.75   47.25
   5   5   9  382.29   22.93
  -5   5  -9  354.93   18.03
  -7  -5  -9  345.19   21.00
  -7  -5  -9  440.76   72.06
   7  -5   9  368.34   56.71
  -7   5  -9  342.18   21.59
   7   5   9  395.28   69.52
  -7   5  -9  326.88   15.99
  -7   5  -9  413.09   47.04
   7   5   9  329.03   21.91
  -9  -5  -9  272.04   17.50
  -9  -5  -9  221.59   54.46
   9  -5   9  212.50   46.54
   9   5   9  276.15   19.24
  -9   5  -9  262.37   18.40
  -9   5  -9  229.80   39.34
 -11  -5  -9  180.69   51.41
 -11  -5  -9  172.30   12.75
  11  -5   9  137.44   37.67
 -11   5  -9  145.87   31.15
  11   5   9  176.19   54.85
  11   5   9  159.69   14.25
 -11   5  -9  164.51   13.85
 -13  -5  -9  166.10   12.44
 -13  -5  -9  130.56   47.46
  13  -5   9  136.38   36.68
  13   5   9  194.66   15.70
 -13   5  -9  169.47   14.38
 -13   5  -9  142.96   30.15
  13   5   9  170.01   52.39
 -15  -5  -9  149.30   11.38
 -15  -5  -9  173.09   53.05
  15   5   9  176.71   15.19
  15   5   9  125.36   57.67
 -15   5  -9   69.22   28.93
 -15   5  -9  148.35   13.71
 -17  -5  -9   74.38    7.81
 -17  -5  -9   58.54    6.60
  17   5   9   66.12   11.78
 -17   5  -9   75.32   12.31
 -19  -5  -9   52.94    6.42
 -19  -5  -9   61.83    5.84
  19   5   9   56.08   11.74
 -19   5  -9   36.37    8.23
  21   5   9   40.88    9.53
 -21   5  -9   38.17    8.46
  23   5   9   10.63    6.38
 -23   5  -9   15.45    5.86
  25   5   9    6.23    5.38
 -25   5  -9   14.42    5.61
  24  -6  -9    3.75    4.23
 -24  -6   9    2.84    5.40
  24   6  -9    5.94    3.08
  24   6  -9    4.67    4.43
  24   6  -9   10.49    6.12
  22  -6  -9   10.93    4.92
 -22  -6   9  -12.23   98.55
  22   6  -9   16.79    5.61
  22   6  -9   10.57   72.14
  22   6  -9    2.22    3.99
  20  -6  -9   21.21    6.26
 -20  -6   9   47.55   84.60
  20  -6  -9   17.28   56.10
 -20   6   9   64.44   67.07
  20   6  -9   31.16   60.70
  20   6  -9    8.61    4.02
  20   6  -9   19.54    6.15
  18  -6  -9   21.57    5.82
  18  -6  -9   46.80   44.80
 -18  -6   9   19.48   66.15
  18   6  -9    4.71    4.06
  18   6  -9   24.57   50.87
  18   6  -9   13.47    4.79
  16  -6  -9   19.70    5.78
 -16  -6   9    0.38   59.97
  16  -6  -9   -9.03   48.04
  16   6  -9   59.77   47.84
 -16   6   9   16.12   48.55
  16   6  -9   17.17    5.14
  16   6  -9    8.91    4.75
  14  -6  -9   19.36    5.77
  14  -6  -9   67.46   41.64
 -14  -6   9   20.55   54.07
  14   6  -9   18.40    4.82
  14   6  -9   46.06   38.86
 -14   6   9  -16.83   46.80
  14   6  -9   25.47    5.75
 -12  -6   9  -25.35   44.27
  12  -6  -9   16.34   27.98
  12  -6  -9   18.59    5.74
  12   6  -9   27.00   38.11
  12   6  -9   29.88    6.24
  12   6  -9   30.62    5.87
 -12   6   9   16.49   43.72
  10  -6  -9   25.22    6.47
 -10  -6   9   -8.55   30.73
  10  -6  -9  -49.54   33.64
  10   6  -9   15.12    3.91
  10   6  -9    8.85    3.60
 -10   6   9  -12.52   41.07
  10   6  -9   16.87    5.22
  10   6  -9   24.11   34.70
   8  -6  -9    4.51    3.51
  -8  -6   9  -17.52   44.53
   8  -6  -9   32.77   40.78
   8   6  -9    4.13   29.98
   8   6  -9   12.11    3.15
  -8   6   9    1.58   28.83
   8   6  -9   10.90    3.93
   8   6  -9    5.02    3.03
   6  -6  -9    8.54    4.07
   6  -6  -9   29.60   36.52
   6   6  -9    9.58    2.54
   6   6  -9    5.21    3.14
   6   6  -9    0.02   26.94
   6   6  -9    8.41    3.23
  -6   6   9   13.95   39.06
   4  -6  -9    4.59    3.46
   4  -6  -9  -20.60   34.80
  -4   6   9  -19.40   38.69
   4   6  -9   -1.33    1.95
   4   6  -9    1.08    2.62
   4   6  -9    0.52   25.64
   4   6  -9   -0.40    0.57
   4   6  -9    2.76    1.44
  -2  -6   9   18.74   31.38
   2  -6  -9   -0.84   35.85
  -2   6   9   32.93   36.49
   2   6  -9   20.75   23.19
   0  -6  -9   52.38   39.56
   0  -6   9    4.01   27.64
   0  -6  -9   -0.17    2.47
   0   6   9  -11.51   35.48
   0   6  -9    4.43    3.13
   0   6  -9    3.87    2.69
   0   6  -9   -1.10   22.66
  -2  -6  -9  -12.62   26.89
   2  -6   9    9.86   28.05
  -2  -6  -9   -1.65    1.94
  -2   6  -9    2.74    2.26
  -2   6  -9    2.66    2.87
   2   6   9    2.67   36.21
  -2   6  -9   11.01   21.78
   4  -6   9   -0.65   25.56
  -4  -6  -9   -0.28    2.62
  -4  -6  -9  -10.18   25.17
  -4   6  -9   11.57   23.65
  -4   6  -9    0.15    2.28
   4   6   9  -33.45   26.33
  -4   6  -9    0.34    1.78
  -6  -6  -9   28.74   37.35
  -6  -6  -9   13.84    4.96
   6  -6   9   15.80   31.22
   6   6   9    1.97   27.42
  -6   6  -9   -6.81   19.43
  -6   6  -9   13.84    4.87
   6   6   9    8.11    4.83
  -8  -6  -9    7.71    4.03
   8  -6   9   29.36   31.69
  -8  -6  -9  -44.02   27.43
  -8   6  -9   16.36    5.52
  -8   6  -9    2.17   21.95
   8   6   9   18.31    5.72
  10  -6   9   18.23   31.09
 -10  -6  -9   -5.19   40.90
 -10  -6  -9    7.36    3.92
 -10   6  -9    1.05    3.17
  10   6   9  -40.66   42.89
 -10   6  -9  -32.24   20.10
  10   6   9    4.53    3.99
 -12  -6  -9   30.14   45.23
 -12  -6  -9    5.16    3.81
 -12   6  -9   -2.90   21.91
  12   6   9   -9.56   35.04
  12   6   9    6.61    4.51
 -12   6  -9   11.48    4.91
 -14  -6  -9    2.52    3.16
 -14  -6  -9   35.82   46.56
 -14   6  -9   -1.65    2.93
  14   6   9    9.89    4.92
  14   6   9    0.77   52.15
 -16  -6  -9    3.34    2.99
 -16   6  -9    3.88    3.83
  16   6   9    4.42    4.26
 -18  -6  -9    3.96    3.05
 -18  -6  -9    6.37    2.89
  18   6   9    1.81    3.94
 -18   6  -9    1.83    3.24
 -20  -6  -9    4.95    2.86
  20   6   9    4.38    4.73
 -20   6  -9    4.94    4.26
 -22  -6  -9   -0.60    0.95
 -22  -6  -9    0.06    0.87
  22   6   9    1.40    4.77
 -22   6  -9    1.86    3.36
 -24   6  -9    0.07    3.49
  24   6   9    3.40    4.70
 -23  -7   9   19.80    8.30
  23  -7  -9   20.14    5.73
  23   7  -9   17.25    6.26
  23   7  -9    5.44    4.96
  23   7  -9   14.80    3.49
  21  -7  -9   30.53    7.40
  21   7  -9   16.96  128.92
  21   7  -9   18.29    3.96
  21   7  -9   17.83    6.18
  21   7  -9   14.75    6.17
  19  -7  -9   35.12    7.41
 -19   7   9   52.65   66.67
  19   7  -9   32.00    5.38
  19   7  -9   37.52    8.05
  19   7  -9  -19.76   63.79
  19   7  -9   26.60    7.05
  17  -7  -9   28.02   51.80
  17  -7  -9   47.46    8.79
  17   7  -9   41.12    8.24
  17   7  -9   41.65    8.22
  17   7  -9   -5.02   56.59
  17   7  -9   47.92    7.14
  15  -7  -9   71.88   51.08
  15  -7  -9   58.86    9.57
  15   7  -9   46.73   49.38
 -15   7   9   -9.11   55.59
  15   7  -9   51.24    9.14
  15   7  -9   72.93   10.61
  15   7  -9   60.11    6.91
  13  -7  -9  102.99   13.47
  13  -7  -9    0.33   46.83
 -13   7   9   -9.41   50.57
  13   7  -9   87.28    8.56
  13   7  -9   82.55    8.78
  13   7  -9   90.87   10.10
  13   7  -9   62.68   46.22
 -11  -7   9   75.34   57.34
  11  -7  -9  127.00   12.06
  11  -7  -9   90.31   45.56
  11   7  -9  109.15    9.55
 -11   7   9   31.53   49.44
  11   7  -9  112.62   11.02
  11   7  -9  102.20    9.51
  11   7  -9   64.02   42.70
   9  -7  -9  125.67   50.80
  -9  -7   9  101.94   44.47
   9  -7  -9  116.53   11.86
  -9   7   9  -26.68   43.92
   9   7  -9  127.44   11.51
   9   7  -9  119.66    9.36
   9   7  -9  124.53   10.62
   9   7  -9  124.74   43.69
   7  -7  -9   99.59   46.66
  -7  -7   9  137.70   51.84
   7  -7  -9  135.81   12.35
   7   7  -9  101.34   37.27
   7   7  -9  102.68    8.01
   7   7  -9  105.32   10.20
  -7   7   9  -44.41   42.38
   7   7  -9  141.50   10.98
   5  -7  -9  133.05   12.42
   5  -7  -9  111.91   49.32
  -5  -7   9  114.00   42.78
   5   7  -9  122.51   10.75
  -5   7   9    9.89   42.25
   5   7  -9  115.57   10.57
   5   7  -9  128.59   38.70
   3  -7  -9  183.74   14.70
  -3  -7   9  192.86   53.80
   3  -7  -9  140.65   52.42
  -3   7   9  144.94   56.47
   3   7  -9  170.13   13.12
   3   7  -9  161.27   12.51
   3   7  -9   90.83   35.90
   1  -7  -9  165.60   56.56
  -1  -7   9  162.71   48.05
   1  -7  -9  168.78   14.43
   1   7  -9  169.18   13.40
   1   7  -9  170.55   12.41
  -1   7   9  205.55   61.43
   1   7  -9  195.27   45.03
  -1  -7  -9  134.06   42.95
   1  -7   9   65.98   38.58
  -1  -7  -9  150.27   13.46
  -1   7  -9  148.87   12.50
  -1   7  -9  157.89   39.57
  -1   7  -9  153.79   10.96
   1   7   9  101.44   49.33
  -3  -7  -9  150.21   49.00
  -3  -7  -9  133.42   13.06
   3  -7   9  138.70   43.80
  -3   7  -9  179.34   11.21
   3   7   9  132.31   46.69
  -3   7  -9  161.12   13.49
  -3   7  -9  177.70   37.13
  -5  -7  -9  194.14   15.22
   5  -7   9  107.56   42.51
  -5  -7  -9  312.32   69.24
  -5   7  -9  189.35   14.82
  -5   7  -9  104.88   31.80
   5   7   9  209.50   62.89
   7  -7   9   98.70   40.81
  -7  -7  -9  174.50   54.93
  -7  -7  -9  148.08   13.48
  -7   7  -9  194.22   14.83
   7   7   9  174.41   15.51
  -7   7  -9  128.63   36.25
  -9  -7  -9   72.98   51.21
  -9  -7  -9  120.05   11.62
   9   7   9   70.60   56.30
  -9   7  -9  138.52   12.77
   9   7   9  122.09   13.21
 -11  -7  -9  100.66   10.47
 -11  -7  -9  165.21   60.29
  11   7   9   94.06   63.00
  11   7   9  100.84   12.04
 -11   7  -9  115.39   11.77
 -13  -7  -9  101.32   10.27
 -13  -7  -9   62.43   55.35
  13   7   9   76.31   60.96
 -13   7  -9   88.91   13.06
  13   7   9  109.05   12.64
 -15  -7  -9   65.28    9.56
 -15   7  -9   66.39   11.52
  15   7   9   54.28   10.75
 -17  -7  -9   50.24    8.19
 -17   7  -9   49.65    9.90
  17   7   9   40.46    9.89
 -19  -7  -9   28.06    5.66
 -19   7  -9   38.03    8.96
  19   7   9   30.91    9.07
 -21  -7  -9   12.59    3.82
  21   7   9   23.31    7.98
 -21   7  -9   21.24    6.65
  23   7   9    8.10    5.91
 -23   7  -9    6.66    5.57
  22  -8  -9    5.98    4.33
 -22  -8   9    6.74    6.77
  22   8  -9    3.96    3.54
  22   8  -9    7.25    5.89
  22   8  -9   23.70    7.63
 -20  -8   9  -77.87  107.07
  20  -8  -9    6.19    4.82
  20   8  -9    7.79    4.88
  20   8  -9    7.65    5.27
  20   8  -9    8.61    3.06
  18  -8  -9    8.13    4.56
 -18  -8   9  115.66   98.00
  18   8  -9   13.73    3.57
  18   8  -9  -99.65   66.53
  18   8  -9    5.36    4.26
  18   8  -9    4.82    4.45
 -16  -8   9   88.44   79.02
  16  -8  -9    5.63    4.33
  16   8  -9    0.86    3.13
  16   8  -9    7.78    3.41
  16   8  -9  -98.93   56.45
  16   8  -9    9.58    5.05
  14  -8  -9   28.93   54.07
  14  -8  -9    4.39    4.07
 -14  -8   9    5.03   71.93
 -14   8   9  -34.78   60.56
  14   8  -9    3.99    3.34
  14   8  -9    6.68    3.33
  14   8  -9  -16.40   51.76
  14   8  -9    5.19    4.30
 -12  -8   9  -82.98   59.57
  12  -8  -9   14.89    5.16
  12  -8  -9  -27.06   50.02
  12   8  -9   13.15    3.98
  12   8  -9   10.30    3.94
  12   8  -9    9.79    4.27
  12   8  -9  101.77   52.00
 -12   8   9   40.89   58.19
 -10  -8   9   35.34   52.98
  10  -8  -9   74.70   53.23
  10   8  -9   35.04   45.29
 -10   8   9   12.13   56.84
  10   8  -9   20.57    5.24
  10   8  -9   20.07    5.59
   8  -8  -9    9.15    5.03
  -8  -8   9  -82.63   47.65
   8  -8  -9   -3.58   46.97
   8   8  -9  -11.26   36.37
   8   8  -9    0.13    0.94
  -8   8   9   15.83   53.70
   8   8  -9   12.10    4.37
   8   8  -9   13.06    4.21
  -6  -8   9  -74.92   42.49
   6  -8  -9   18.86    6.20
   6  -8  -9  -30.54   47.69
   6   8  -9   55.32   41.45
  -6   8   9  -57.56   49.89
   6   8  -9   21.43    5.53
   6   8  -9    0.05    0.62
   6   8  -9   16.45    4.60
   4  -8  -9   19.43    6.39
   4  -8  -9   67.12   48.59
  -4  -8   9   90.69   45.30
  -4   8   9  -16.30   49.57
   4   8  -9   19.12    5.37
   4   8  -9   12.97    4.27
   4   8  -9   57.19   41.65
  -2  -8   9   11.15   40.16
   2  -8  -9   15.14    5.56
   2  -8  -9   46.53   48.85
   2   8  -9   43.72   37.54
   2   8  -9   20.34    5.88
  -2   8   9  -29.52   49.83
   2   8  -9   15.58    4.72
   0  -8  -9   15.07    5.35
   0  -8  -9   32.59   48.02
   0  -8   9  -19.81   34.83
   0   8  -9   17.06    4.76
   0   8   9    7.91   51.75
   0   8  -9   15.67    5.05
   0   8  -9   -0.12   30.09
  -2  -8  -9   29.31   50.44
   2  -8   9   23.43   34.38
   2   8   9   15.61   53.33
  -2   8  -9   37.55   33.88
  -4  -8  -9    2.46    3.76
  -4  -8  -9   47.58   50.10
   4   8   9   19.40   56.42
  -4   8  -9   12.35    4.96
  -6  -8  -9   16.86    5.39
  -6  -8  -9  -51.80   48.31
   6   8   9    8.49    5.56
  -6   8  -9   19.42    5.99
  -8  -8  -9    9.12    4.91
  -8  -8  -9    1.32   54.26
  -8   8  -9    2.73    3.85
   8   8   9    6.94    5.15
   8   8   9   14.26   63.70
 -10  -8  -9  -29.67   55.28
 -10  -8  -9    1.33    3.59
  10   8   9  -67.18   63.20
 -10   8  -9    1.24    3.29
  10   8   9    5.64    4.71
 -12  -8  -9  -51.98   63.22
 -12  -8  -9    0.05    3.16
  12   8   9    5.05    4.68
 -12   8  -9    3.00    3.75
  12   8   9   23.88   68.71
 -14  -8  -9    2.10    3.33
  14  -8   9   12.04   44.18
 -14   8  -9    7.86    4.99
  14   8   9   -1.49    3.59
 -16  -8  -9   -0.26    2.92
  16   8   9   -0.52    3.91
 -16   8  -9    2.58    3.46
 -18  -8  -9   -1.03    2.81
  18   8   9    6.03    4.40
 -18   8  -9    4.54    4.04
 -20  -8  -9    0.08    1.04
 -20  -8  -9   -1.75    2.40
 -20   8  -9    0.22    4.00
  20   8   9    6.92    5.65
  19  -9  -9   27.49    7.60
 -19  -9   9   26.59    8.91
  19   9  -9   32.35    5.24
  19   9  -9   26.82    7.66
  19   9  -9   33.75    8.69
 -17  -9   9   75.35  106.13
  17  -9  -9   42.92    8.78
  17   9  -9   36.31    8.68
  17   9  -9   26.23   57.88
  17   9  -9   36.39    5.91
  17   9  -9   43.92    9.90
 -15  -9   9    0.76   88.35
  15  -9  -9   44.95    8.73
  15   9  -9   67.75   70.71
  15   9  -9   39.77    6.33
  15   9  -9   27.17    7.73
  13  -9  -9   56.27   10.36
 -13  -9   9   43.33   80.30
  13   9  -9   43.84    6.94
  13   9  -9   52.60   61.91
  13   9  -9   64.99   11.02
 -13   9   9   92.21   73.80
 -11  -9   9   67.18   73.35
  11  -9  -9   54.80   63.46
  11  -9  -9   80.04   12.31
 -11   9   9    0.53   65.13
  11   9  -9   78.21   10.29
  11   9  -9   57.42   10.06
  11   9  -9  106.03   58.87
  -9  -9   9   95.92   62.50
   9  -9  -9   13.98   61.20
   9  -9  -9   55.27   10.13
   9   9  -9   71.57   10.92
   9   9  -9   85.16    8.66
   9   9  -9   47.24   50.85
  -9   9   9   71.20   68.92
   7  -9  -9  142.93   67.25
  -7  -9   9   81.15   60.94
   7  -9  -9  111.58   12.09
   7   9  -9  115.92   11.38
  -7   9   9   73.36   66.29
   7   9  -9   59.91   47.22
   7   9  -9   89.27    9.54
   5  -9  -9  120.95   13.20
   5  -9  -9  174.54   70.38
   5   9  -9  137.70   11.79
   5   9  -9  136.73   12.35
   5   9  -9   78.67   55.53
  -5   9   9  -54.31   58.53
   3  -9  -9   56.31   56.51
  -3   9   9  -75.96   56.55
   1  -9  -9  158.32   14.64
   1  -9  -9  122.94   64.44
   1   9  -9  158.82   12.43
   1   9  -9  163.27   13.56
  -1   9   9    4.51   59.16
  -1  -9  -9   24.88   63.09
   1   9   9    6.94   62.53
  -3  -9  -9  156.49   67.65
  -3  -9  -9  120.09   12.63
  -3   9  -9  134.63   12.68
   3   9   9   21.88   66.36
  -5  -9  -9   84.53   64.48
  -5  -9  -9  121.09   12.90
  -5   9  -9  140.67   13.02
  -7  -9  -9   97.64   69.72
  -7  -9  -9  102.14   14.18
  -7   9  -9  104.73   11.61
   7   9   9   96.30   15.00
   7   9   9  164.62   80.13
  -9  -9  -9   73.43   11.52
  -9  -9  -9   57.10   68.00
   9   9   9   74.89   13.33
  -9   9  -9   78.51   12.17
   9   9   9   28.49   74.38
  11  -9   9   29.18   58.48
 -11  -9  -9   81.26   12.20
 -11  -9  -9   90.04   79.25
  11   9   9   63.50   11.93
  11   9   9  -13.30   85.47
 -11   9  -9   58.58   10.61
  13  -9   9   36.42   52.50
 -13  -9  -9   59.79   10.27
  13   9   9   78.34   13.76
 -13   9  -9   65.27   10.97
 -15  -9  -9   48.73    9.38
  15   9   9   62.84   12.35
 -15   9  -9   55.99   10.65
 -17  -9  -9   37.85    7.81
  17   9   9   41.90   10.22
 -17   9  -9   52.42   10.87
 -19  -9  -9   19.69    6.20
  19   9   9   22.28    8.35
 -19   9  -9   27.87    8.25
  16 -10  -9   11.49    6.03
  16  10  -9   -0.66    1.54
  16  10  -9    5.17    2.99
  16  10  -9    1.31    4.24
  14 -10  -9    2.54    4.17
  14  10  -9   -0.14    1.43
  14  10  -9   -0.21    3.28
  14  10  -9   17.61    4.24
  12 -10  -9    9.60    5.83
  12  10  -9    5.34    3.52
  12  10  -9    7.85    5.15
  10 -10  -9    4.17    4.45
  10  10  -9    8.26    5.26
  10  10  -9    5.41    3.59
   8 -10  -9    6.60    5.11
   8  10  -9   -0.07    0.73
   8  10  -9   17.44    4.66
   8  10  -9   15.75    5.97
  -8  10   9 -169.81   85.91
   6 -10  -9   14.30    5.75
   6 -10  -9  -12.32   70.46
   6  10  -9   22.84    5.80
  -6  10   9  -15.72   74.88
   6  10  -9   13.36    4.92
   4 -10  -9   43.20   69.78
   4 -10  -9   13.20    5.40
   4  10  -9   22.59    6.05
  -4  10   9   16.18   77.10
   4  10  -9   14.14    4.85
   2 -10  -9    6.25    4.76
   2 -10  -9  -13.07   67.23
  -2  10   9 -108.22   73.74
   2  10  -9   17.76    5.09
   0 -10  -9  -97.93   68.51
   0 -10  -9   17.78    6.17
   0  10   9  -62.13   78.88
   0  10  -9    4.31    3.73
  -2 -10  -9   47.84   69.39
  -2 -10  -9   12.08    5.05
   2  10   9   23.85   82.11
  -2  10  -9    5.10    3.48
  -4 -10  -9  -52.75   69.99
  -4 -10  -9    2.69    3.95
  -4  10  -9    9.17    4.14
  -6 -10  -9   41.06   77.44
  -6 -10  -9    2.84    3.75
   6 -10   9  -12.05   69.61
  -6  10  -9    3.29    3.31
   6  10   9  -43.19   85.57
  -8 -10  -9    2.32    4.07
   8 -10   9  114.56   72.26
  -8 -10  -9   23.17   65.69
   8  10   9    2.57    4.20
   8  10   9  -82.05   89.50
  -8  10  -9    4.58    4.73
 -10 -10  -9  -54.21   83.70
 -10 -10  -9    1.70    4.03
  10 -10   9   59.49   71.62
  10  10   9 -104.07   98.19
 -10  10  -9    4.77    3.96
  10  10   9   -2.50    2.84
 -12 -10  -9    2.02    4.29
  12 -10   9    2.94   62.77
  12  10   9    8.97    5.05
 -12  10  -9    2.82    4.02
 -14 -10  -9    8.89    4.90
  14  10   9    3.45    5.02
 -14  10  -9    4.40    4.70
 -16 -10  -9   -1.23    3.06
  16  10   9    0.64    4.21
 -16  10  -9    1.10    4.29
  13 -11  -9   35.05    8.61
  13  11  -9   40.94    7.17
  13  11  -9   34.57    8.99
  11 -11  -9   35.24    8.86
  11  11  -9   54.08    8.35
  11  11  -9   33.58    8.61
   9 -11  -9   66.76   11.70
   9  11  -9   51.27    9.97
   9  11  -9   46.25    8.35
   7 -11  -9   59.43   10.83
   7  11  -9   53.63    8.12
   7  11  -9   48.48    9.22
   5 -11  -9   72.91   12.15
   5  11  -9   72.20    8.72
   3 -11  -9   42.79   10.48
   3  11  -9   86.17   11.97
   1 -11  -9   86.01   13.69
   1  11  -9   78.60   11.58
  -1  11   9   51.52  108.69
  -1 -11  -9   71.51   12.94
  -1  11  -9   92.96   13.28
   1  11   9   87.98  104.21
  -3 -11  -9  121.63   95.93
  -3 -11  -9   90.09   14.38
  -3  11  -9   97.83   11.04
  -5 -11  -9   37.27   97.58
  -5 -11  -9   60.86   11.92
   5  11   9   76.31  118.28
  -5  11  -9   81.03   12.78
  -7 -11  -9   55.51   10.61
  -7 -11  -9  130.53  106.64
  -7  11  -9   78.87   12.86
   7  11   9    9.84  124.14
  -9 -11  -9   62.16   11.55
  -9  11  -9   60.85   11.85
   9  11   9   50.42   11.10
 -11 -11  -9   64.89   12.25
  11  11   9   30.16    8.33
 -11  11  -9   47.71    9.76
   6 -12  -9    1.79    4.59
   6  12  -9    2.16    3.02
   4 -12  -9    2.52    4.52
   4  12  -9    4.14    3.68
   2 -12  -9   -2.16    3.24
   2  12  -9    2.02    3.22
   0 -12  -9   -0.80    3.61
   0  12  -9    0.75    2.83
  -2 -12  -9    2.93    4.91
  -2  12  -9    0.34    2.74
  -4 -12  -9    0.33    4.16
  -4  12  -9    3.49    4.20
  26   0 -10   20.01    5.99
  26   0 -10    5.39    4.18
  24   0 -10   13.37    5.51
  22   0 -10   27.93    6.50
  22   0 -10   29.88    6.71
  22   0 -10   17.13   53.79
 -22   0  10   -4.64   87.45
  20   0 -10   19.44   45.51
 -20   0  10  -49.84   62.57
  20   0 -10   41.64    7.79
  18   0 -10   41.11   40.80
  18   0 -10   46.59    8.20
 -18   0  10   54.46   62.38
  16   0 -10   78.90   42.27
  16   0 -10  101.29    9.77
 -16   0  10  -32.52   50.78
  14   0 -10  159.13   12.82
  14   0 -10  165.72   49.96
  12   0 -10  130.77   11.22
  12   0 -10  138.20   38.82
 -12   0  10  180.20   55.59
  10   0 -10  221.25   15.30
  10   0 -10  208.25   44.97
 -10   0  10  308.43   65.76
  -8   0  10  372.83   63.88
   8   0 -10  261.33   16.91
   8   0 -10  259.05   50.58
   6   0 -10  294.46   50.71
  -6   0  10  276.84   61.82
   6   0 -10  288.54   18.50
   6   0 -10  306.36   18.24
   4   0 -10  345.04   56.62
   4   0 -10  381.90   21.10
   4   0 -10  343.87   21.16
  -4   0  10  525.78   74.40
   2   0 -10  289.91   18.65
   2   0 -10  318.13   18.24
   2   0 -10  317.12   52.97
  -2   0  10  387.98   67.24
   0   0 -10  455.44   55.39
   0   0 -10  401.82   23.01
   0   0  10  438.63   67.48
   0   0 -10  390.40   21.76
  -2   0 -10  419.14   54.40
   2   0  10  344.43   60.89
  -2   0 -10  410.41   23.46
  -2   0 -10  429.08   22.24
  -4   0 -10  446.03   25.16
  -4   0 -10  462.93   23.66
   4   0  10  445.41   68.90
  -4   0 -10  494.15   54.62
  -6   0 -10  367.47   55.17
  -6   0 -10  429.74   24.25
  -6   0 -10  473.90   23.02
  -8   0 -10  340.00   51.87
  -8   0 -10  336.05   19.44
   8   0  10  272.06   53.28
  -8   0 -10  343.01   17.89
  10   0  10  288.63   54.43
 -10   0 -10  297.56   50.77
 -10   0 -10  307.78   15.85
 -10   0 -10  296.09   17.63
 -12   0 -10  249.59   15.48
 -12   0 -10  245.00   12.97
  12   0  10  277.07   15.82
  12   0  10  229.83   52.49
 -12   0 -10  254.98   17.81
 -12   0 -10  232.48   43.41
  14   0  10  146.10   43.95
 -14   0 -10  163.33   38.91
 -14   0 -10  173.73   14.44
 -14   0 -10  173.63   12.10
  14   0  10  203.07   13.01
  16   0  10  116.54    9.72
 -16   0 -10  105.29   10.99
  18   0  10   82.95    8.19
 -18   0 -10   69.29   10.30
 -20   0 -10   34.48    7.81
  20   0  10   45.67    7.40
 -22   0 -10   42.16    8.90
  22   0  10   41.76    7.96
  24   0  10   26.17    6.24
 -24   0 -10   35.52    7.59
 -26   0 -10   32.60    7.80
  26   0  10   16.12    5.69
  27  -1 -10    2.76    3.94
  27  -1 -10    0.00    2.95
  27   1 -10    3.54    3.95
  27   1 -10    3.37    4.48
  25  -1 -10    2.98    3.66
  25  -1 -10    3.36    4.00
  25   1 -10   10.80    5.37
  25   1 -10    4.85    4.27
  23  -1 -10    3.57    3.69
 -23  -1  10  -27.77   85.57
  23   1 -10    3.26    3.39
 -23   1  10  -74.96   80.16
  23   1 -10   14.06    4.81
 -21  -1  10  -20.51   72.79
  21  -1 -10   14.39    5.03
  21  -1 -10   28.05   50.41
  21   1 -10   34.63   53.19
 -21   1  10   70.05   75.52
  21   1 -10   13.73    4.65
  21   1 -10    6.33    4.02
 -19  -1  10   13.68   64.97
  19  -1 -10   21.18    5.81
  19  -1 -10   29.71   40.20
  19   1 -10    9.52    4.38
  19   1 -10    6.12    3.78
 -19   1  10 -101.43   58.26
  19   1 -10   38.82   47.13
 -17  -1  10   -0.46   56.72
  17  -1 -10   25.87   41.55
  17  -1 -10   19.67    5.46
  17   1 -10   20.51    5.42
  17   1 -10   31.52   39.47
 -17   1  10   57.30   59.97
  15  -1 -10   15.59    4.89
  15  -1 -10   41.39   39.28
 -15  -1  10  -33.88   51.32
  15   1 -10   20.77    5.19
  15   1 -10   -3.06   32.69
 -15   1  10    9.71   52.49
  13  -1 -10  -10.77   30.36
  13  -1 -10    8.21    4.17
 -13  -1  10  -29.67   45.25
  13   1 -10   19.33   34.56
 -13   1  10   61.80   46.96
  13   1 -10   14.00    4.50
 -11  -1  10   25.26   44.63
  11  -1 -10   21.97    5.62
  11  -1 -10   87.48   32.32
 -11   1  10   43.13   34.37
  11   1 -10   34.36    6.45
  11   1 -10   16.12   31.27
   9  -1 -10   27.14    5.82
  -9  -1  10   73.50   40.43
   9  -1 -10   23.13   27.07
   9   1 -10   20.17    5.15
  -9   1  10   -6.29   36.87
   9   1 -10  -19.35   26.58
  -7  -1  10   -8.57   35.58
   7  -1 -10   10.43    3.89
   7  -1 -10    4.90   28.60
   7   1 -10   -7.80   25.86
   7   1 -10    4.88    2.91
  -7   1  10  -10.20   33.18
   7   1 -10    6.09    3.20
   5  -1 -10    5.76    3.19
  -5  -1  10   17.14   26.32
   5  -1 -10   25.91   27.84
   5   1 -10   11.31    3.77
  -5   1  10   13.20   32.78
   5   1 -10    6.00    3.06
   5   1 -10    7.56   20.02
  -3  -1  10   -5.61   30.82
   3  -1 -10   22.43    5.17
   3  -1 -10   13.78    4.36
   3  -1 -10   -6.52   23.87
   3   1 -10   22.63    4.98
   3   1 -10   14.38    4.16
   3   1 -10   -2.49   23.27
  -3   1  10   24.60   27.38
   1  -1 -10   10.88    4.11
  -1  -1  10    5.22   29.16
   1  -1 -10    7.45   18.51
   1  -1 -10    6.49    3.36
   1   1 -10    2.45   23.40
  -1   1  10   37.54   32.24
   1   1 -10   12.89    3.78
   1   1 -10    9.86    3.57
  -1  -1 -10    2.26    2.75
  -1  -1 -10    8.73   19.74
   1  -1  10  -16.25   27.98
  -1  -1 -10   -1.83    1.46
  -1   1 -10   13.54    3.72
  -1   1 -10    1.94   21.07
  -1   1 -10    2.36    2.32
   1   1  10  -13.64   27.99
  -3  -1 -10   40.99   26.43
   3  -1  10   -8.71   27.99
  -3  -1 -10   13.80    4.82
  -3  -1 -10   11.60    3.64
  -3   1 -10    8.85    3.07
  -3   1 -10   11.95    3.33
  -3   1 -10    2.40   22.37
   3   1  10   -5.85   29.57
  -5  -1 -10   19.11   25.99
  -5  -1 -10   15.63    4.88
  -5  -1 -10   17.28    4.22
  -5   1 -10   19.27    3.98
  -5   1 -10   22.87    4.53
  -5   1 -10   12.65   22.81
  -7  -1 -10    7.12    2.93
   7  -1  10  -11.55   26.23
  -7  -1 -10    9.22    3.76
  -7  -1 -10  -16.05   23.75
  -7   1 -10    9.09    2.62
  -7   1 -10    7.14    2.53
   7   1  10  -30.55   31.36
  -7   1 -10    9.33   21.89
  -9  -1 -10  -22.95   23.85
  -9  -1 -10   10.42    3.97
   9  -1  10   17.90   29.69
  -9  -1 -10   10.96    3.19
  -9   1 -10    5.96    3.59
  -9   1 -10   39.50   26.13
  -9   1 -10   12.17    3.18
   9   1  10   -8.75   34.19
  -9   1 -10    9.70    2.55
  11  -1  10   -8.70   31.76
 -11  -1 -10   17.43    4.74
 -11  -1 -10   20.14    3.85
 -11  -1 -10   17.61   27.21
 -11   1 -10   21.27    3.93
  11   1  10   17.84    4.36
 -11   1 -10   22.82   22.55
  11   1  10   22.79   35.86
 -11   1 -10   25.19    6.31
 -13  -1 -10    6.37    2.16
  13  -1  10  -33.08   30.80
 -13  -1 -10   -0.37    1.00
 -13  -1 -10   14.13   31.37
 -13  -1 -10    7.80    4.19
  13   1  10  -48.47   35.85
 -13   1 -10   -4.53   25.88
 -13   1 -10   -0.76    0.75
 -13   1 -10    9.37    4.40
  13   1  10    4.15    2.93
 -15  -1 -10    9.01    3.93
 -15  -1 -10   38.82   35.71
  15  -1  10   12.08    3.39
 -15   1 -10    1.44    3.40
  15   1  10   10.20   40.47
  15   1  10   12.09    3.79
 -15   1 -10   28.67   30.80
 -17  -1 -10    5.06    3.74
  17  -1  10    7.36    2.83
  17   1  10    6.35    3.54
 -17   1 -10    2.51    3.62
 -19  -1 -10    4.38    3.61
  19  -1  10    5.63    3.25
 -19   1 -10    5.66    4.51
  19   1  10    5.60    4.05
  21  -1  10    3.60    3.21
 -21  -1 -10    6.75    3.91
  21   1  10    1.99    3.76
 -21   1 -10    5.53    4.21
  23  -1  10   -1.91    2.03
 -23  -1 -10    5.54    3.68
  23   1  10   12.31    4.92
 -23   1 -10   10.99    4.38
  25  -1  10    4.63    3.56
 -25  -1 -10    5.32    4.28
 -25   1 -10   -0.91    2.67
  25   1  10    8.23    5.14
  26  -2 -10   21.53    5.66
  26  -2 -10   18.84    6.60
  26   2 -10   13.54    5.08
  26   2 -10    3.20    4.10
  24  -2 -10   12.08    5.15
  24   2 -10   17.90    5.57
  24   2 -10   21.82    5.96
  22  -2 -10   25.89    6.40
  22  -2 -10   46.70   59.99
 -22  -2  10    8.17   84.15
 -22   2  10   18.26   73.92
  22   2 -10   28.48    7.04
  22   2 -10   65.78   58.43
  22   2 -10   27.42    7.09
 -20  -2  10  -13.55   74.73
  20  -2 -10   25.73   46.38
  20  -2 -10   35.78    7.65
  20   2 -10   38.06    7.71
  20   2 -10   35.17    7.31
 -20   2  10  -25.76   67.60
  20   2 -10   60.72   54.06
  18  -2 -10   50.54    8.54
  18  -2 -10   41.61   47.27
 -18  -2  10   67.34   64.59
 -18   2  10  -18.44   58.01
  18   2 -10   10.69   34.73
  18   2 -10   45.69    7.88
  18   2 -10   39.69    7.55
 -16  -2  10   24.43   42.72
  16  -2 -10   55.46   39.94
  16  -2 -10   79.77   10.71
  16   2 -10   78.39    8.55
  16   2 -10   61.85    8.84
 -16   2  10    9.01   52.21
  16   2 -10   48.91   40.65
  14  -2 -10   81.29   11.06
  14  -2 -10  136.64   45.53
 -14  -2  10  121.31   57.10
  14   2 -10   74.73   39.84
  14   2 -10   98.75    8.91
  14   2 -10   91.94    9.16
 -14   2  10   -8.45   48.01
  12  -2 -10   73.06   38.46
 -12  -2  10   98.85   42.68
  12  -2 -10  100.17    9.54
  12   2 -10   85.81    9.10
  12   2 -10  139.58   40.34
 -12   2  10   20.15   45.14
  10  -2 -10  139.69   42.66
  10  -2 -10  131.27   11.38
 -10  -2  10  221.93   57.54
  10   2 -10  135.13   11.18
 -10   2  10  219.13   58.41
  10   2 -10  152.31   42.49
   8  -2 -10  169.24   47.27
   8  -2 -10  171.72   12.78
  -8  -2  10  146.68   46.68
   8   2 -10  172.20   43.22
   8   2 -10  158.19   11.59
  -8   2  10  181.52   55.23
   8   2 -10  162.67   12.11
  -6  -2  10  177.72   53.00
   6  -2 -10  213.16   46.94
   6  -2 -10  174.00   12.97
   6   2 -10  171.65   11.80
   6   2 -10  156.99   11.92
  -6   2  10  147.24   46.27
   6   2 -10  157.41   42.09
   4  -2 -10  223.56   46.53
   4  -2 -10  253.73   16.43
  -4  -2  10  185.93   50.59
   4   2 -10  259.14   48.48
   4   2 -10  249.18   15.02
  -4   2  10  232.57   54.35
   4   2 -10  249.75   15.49
   2  -2 -10  354.22   56.04
   2  -2 -10  308.05   18.07
  -2  -2  10  288.52   58.46
   2   2 -10  267.06   16.16
   2   2 -10  311.66   52.82
  -2   2  10  281.43   59.55
   2   2 -10  270.11   16.51
   0  -2 -10  158.70   43.92
   0  -2 -10  240.58   15.64
   0  -2  10  169.62   45.39
   0   2 -10  249.53   47.05
   0   2  10  281.21   54.36
   0   2 -10  251.72   14.52
   0   2 -10  250.53   14.81
  -2  -2 -10  178.82   43.65
  -2  -2 -10  167.77   12.87
   2   2  10  326.76   61.46
  -2   2 -10  213.32   12.68
  -2   2 -10  205.45   12.17
  -2   2 -10  144.86   37.57
  -4  -2 -10  258.76   16.25
  -4  -2 -10  247.40   51.54
  -4   2 -10  251.27   14.23
   4   2  10  329.75   61.92
  -4   2 -10  299.78   45.28
  -4   2 -10  280.44   15.22
   6  -2  10  199.99   47.98
  -6  -2 -10  230.71   14.83
  -6  -2 -10  274.39   52.84
  -6   2 -10  240.88   12.67
  -6   2 -10  244.09   13.50
  -6   2 -10  212.06   41.35
  -8  -2 -10  181.92   42.61
   8  -2  10  132.29   39.79
  -8  -2 -10  127.02    9.69
  -8   2 -10  123.30    7.57
  -8   2 -10  129.86   11.66
  -8   2 -10  197.76   39.15
  -8   2 -10  139.67    8.45
   8   2  10  135.78   45.27
 -10  -2 -10  163.26   44.35
 -10  -2 -10  130.43    9.70
  10  -2  10  128.02   42.62
  10   2  10  158.61   11.88
  10   2  10  113.79   41.48
 -10   2 -10  130.41    7.61
 -10   2 -10   99.63   31.37
 -10   2 -10  138.63   12.28
 -12  -2 -10  133.32   11.45
  12  -2  10  177.21   43.56
 -12  -2 -10  197.54   48.43
 -12  -2 -10  150.89   10.25
  12   2  10  144.47   53.48
 -12   2 -10  127.47   33.82
  12   2  10  168.43   12.80
 -12   2 -10  180.91   14.15
  14  -2  10   81.70   41.28
 -14  -2 -10   80.61   38.10
 -14  -2 -10   99.99    7.23
 -14  -2 -10   93.52    9.75
  14   2  10   76.18   48.74
 -14   2 -10   65.92   29.82
  14   2  10   95.87    9.71
 -14   2 -10  120.20   11.44
 -16  -2 -10  101.46    9.95
  16   2  10   80.38    9.23
 -16   2 -10   82.95   10.05
  18  -2  10   93.95    6.91
 -18  -2 -10   66.03   10.08
 -18   2 -10   76.94   11.21
  18   2  10   87.00    9.64
  20  -2  10   52.90    5.35
 -20  -2 -10   40.10    7.78
  20   2  10   37.59    7.52
 -20   2 -10   35.43    7.63
 -22  -2 -10   31.27    6.38
  22  -2  10   28.95    5.23
  22   2  10   31.46    7.72
 -22   2 -10   40.50    8.29
  24  -2  10   33.08    6.06
 -24  -2 -10   24.30    6.19
 -24   2 -10   21.10    6.21
  24   2  10   33.65    8.07
 -26  -2 -10   10.25    4.20
 -26   2 -10    6.70    4.31
  26   2  10    4.69    4.79
  25  -3 -10    9.82    4.35
  25   3 -10    7.32    4.99
  25   3 -10    3.91    4.30
  23  -3 -10    8.01    4.55
  23   3 -10    1.17    3.47
  23   3 -10    8.04    5.15
  21  -3 -10   18.78   61.98
 -21  -3  10    0.43   64.82
  21  -3 -10   10.65    4.29
  21   3 -10   14.75    5.05
 -21   3  10  -50.43   69.54
  21   3 -10   -2.97   41.60
  21   3 -10   14.19    4.86
  19  -3 -10   21.16    6.12
  19  -3 -10   23.13   45.82
 -19  -3  10   12.59   73.24
  19   3 -10   14.83    4.79
  19   3 -10   23.27   50.48
  19   3 -10   10.58    4.70
 -19   3  10   72.72   64.72
  17  -3 -10   30.58    6.67
 -17  -3  10  -67.50   61.74
  17  -3 -10   -0.12   42.26
  17   3 -10   21.32    5.88
 -17   3  10 -122.33   49.62
  17   3 -10  116.99   49.95
 -15  -3  10  -39.99   56.50
  15  -3 -10   28.17   39.39
  15  -3 -10   24.98    5.88
  15   3 -10   -6.42   38.50
  15   3 -10   21.60    5.32
 -15   3  10  -30.08   48.24
  15   3 -10   15.84    4.96
  13  -3 -10   19.99    5.47
 -13  -3  10   82.33   50.82
  13  -3 -10   -5.87   33.76
  13   3 -10  -26.52   23.29
  13   3 -10   16.04    4.15
 -13   3  10  -83.45   43.92
  13   3 -10   10.36    4.10
  11  -3 -10   28.40   26.60
  11  -3 -10   21.39    5.37
 -11  -3  10   60.77   47.09
 -11   3  10   47.08   43.61
  11   3 -10    7.33   32.05
  11   3 -10   16.64    4.86
  11   3 -10   27.64    5.23
  -9  -3  10   -0.33   42.61
   9  -3 -10   -6.20   30.64
   9  -3 -10   23.58    6.00
   9   3 -10   64.31   32.55
  -9   3  10    3.54   40.57
   9   3 -10   29.49    4.99
   9   3 -10   22.21    5.41
   7  -3 -10   20.05    5.63
  -7  -3  10   -3.81   35.01
   7  -3 -10   14.49   26.01
   7   3 -10   15.92    3.37
  -7   3  10   45.40   36.86
   7   3 -10   16.76    3.98
   7   3 -10  -19.75   26.40
   7   3 -10   15.55    4.31
   5  -3 -10   -7.99   21.19
  -5  -3  10  -14.90   37.00
   5  -3 -10   25.00    5.85
   5   3 -10   24.13    4.52
  -5   3  10   62.70   31.26
   5   3 -10   24.17    5.18
   5   3 -10    5.73   19.87
  -3  -3  10    0.27   33.95
   3  -3 -10   -1.75   30.00
   3  -3 -10   41.25    7.16
   3   3 -10   31.05    5.66
  -3   3  10    1.42   27.66
   3   3 -10   74.73   30.81
   3   3 -10   32.95    5.17
   1  -3 -10   10.46    4.21
   1  -3 -10   44.00   25.24
  -1  -3  10   34.10   35.78
  -1   3  10   14.29   36.14
   1   3 -10    7.84    2.54
   1   3 -10   14.28   17.56
   1   3 -10    9.31    3.31
  -1  -3 -10   25.64   30.37
  -1  -3 -10    6.47    3.14
  -1   3 -10    7.75    2.16
  -1   3 -10   11.91    3.47
   1   3  10  -28.48   31.35
  -1   3 -10    9.05   22.15
   3  -3  10   61.37   33.92
  -3  -3 -10   16.51    4.65
  -3  -3 -10   29.67   25.32
  -3   3 -10   16.45    3.69
  -3   3 -10   14.72    2.22
  -3   3 -10   23.99   22.93
   3   3  10   15.81   32.73
   5  -3  10    0.37   29.05
  -5  -3 -10  -21.18   28.35
  -5  -3 -10    1.01    2.63
  -5   3 -10    6.42   22.76
  -5   3 -10    2.26    2.87
   5   3  10   -6.02   35.00
  -5   3 -10    2.63    1.96
   7  -3  10   -6.67   31.75
  -7  -3 -10    0.56    1.98
  -7  -3 -10    5.11   31.28
  -7   3 -10   -9.46   24.00
  -7   3 -10   -0.72    1.34
  -7   3 -10   -0.66    2.15
  -9  -3 -10  -19.98   31.60
   9  -3  10   33.26   29.91
  -9  -3 -10    1.05    2.50
  -9   3 -10    6.42    1.74
   9   3  10    9.30    4.08
  -9   3 -10   -2.26   24.36
  -9   3 -10    2.50    2.94
   9   3  10   34.55   35.87
 -11  -3 -10  -31.68   31.76
 -11  -3 -10   -0.80    1.71
  11  -3  10   18.08   30.92
 -11   3 -10    0.95    2.73
 -11   3 -10    0.12   20.80
  11   3  10   -6.67   36.25
  11   3  10    3.21    2.97
 -13  -3 -10   -1.00    1.74
  13  -3  10    1.82   34.30
 -13  -3 -10   22.62   36.32
 -13  -3 -10    6.11    3.43
  13   3  10   10.75   40.57
 -13   3 -10    3.39    3.27
  13   3  10   -0.78    2.34
 -13   3 -10   23.43   25.09
 -15  -3 -10    0.42    1.68
 -15  -3 -10    7.26    3.59
 -15  -3 -10    5.42    2.27
 -15   3 -10   11.38    4.61
  15   3  10   10.73    4.16
 -17  -3 -10    0.24    1.05
 -17  -3 -10   -0.07    1.01
 -17  -3 -10    2.84    3.26
  17   3  10    5.43    4.04
 -17   3 -10    3.51    3.89
 -19  -3 -10    4.84    3.48
 -19   3 -10    5.66    4.39
  19   3  10    5.34    4.38
 -21  -3 -10    2.76    3.02
 -21   3 -10    5.28    4.36
  21   3  10    0.61    3.49
 -23  -3 -10    3.22    3.14
 -23   3 -10    2.93    3.84
  23   3  10    2.73    3.98
 -25  -3 -10   -0.68    1.00
  25   3  10   -2.28    2.76
 -25   3 -10    3.39    4.03
  26  -4 -10   16.66    5.29
  26   4 -10   16.19    5.77
  26   4 -10   16.22    6.34
  24  -4 -10    6.29    4.42
  24   4 -10    7.23    4.93
  24   4 -10   14.79    5.50
 -22  -4  10  -42.82   98.33
  22  -4 -10   24.11    6.45
  22   4 -10   30.51    6.69
  20  -4 -10   14.30   49.62
 -20  -4  10   92.85   81.09
  20  -4 -10   46.44    8.71
  20   4 -10  -30.29   55.33
  20   4 -10   49.63    8.88
  20   4 -10   36.71    8.39
 -20   4  10    5.82   71.73
 -18  -4  10 -155.07   70.17
  18  -4 -10   66.37   10.08
  18  -4 -10   -3.26   46.99
  18   4 -10  101.32   53.83
  18   4 -10   76.18   11.34
 -18   4  10   72.77   65.27
  18   4 -10   78.20   11.17
  16  -4 -10   69.24   10.35
 -16  -4  10   39.14   63.66
  16  -4 -10  101.23   54.33
  16   4 -10   74.71    8.40
 -16   4  10  -26.58   53.94
  16   4 -10   68.85   10.17
  16   4 -10   46.49   47.92
 -14  -4  10  103.78   64.59
  14  -4 -10   92.39   12.22
  14  -4 -10   54.97   42.37
  14   4 -10  102.07   44.79
  14   4 -10   89.76   11.54
  14   4 -10   94.60    8.93
 -14   4  10   27.35   53.65
  12  -4 -10  166.78   13.63
 -12  -4  10   64.77   56.33
  12  -4 -10  164.30   49.66
  12   4 -10  158.84   12.74
 -12   4  10   17.53   49.91
  12   4 -10  217.62   53.88
  12   4 -10  153.61   11.52
 -10  -4  10  320.26   66.06
  10  -4 -10  186.59   47.00
  10  -4 -10  195.50   15.08
  10   4 -10  196.79   12.84
  10   4 -10  234.26   52.60
  10   4 -10  186.36   14.15
   8  -4 -10  202.09   15.57
   8  -4 -10  243.48   53.99
  -8  -4  10  257.31   61.18
  -8   4  10  191.98   59.34
   8   4 -10  227.04   15.30
   8   4 -10  225.26   13.32
   8   4 -10  244.34   46.33
   6  -4 -10  231.24   16.11
  -6  -4  10  164.03   52.87
   6  -4 -10  197.54   51.38
   6   4 -10  251.90   50.87
   6   4 -10  207.41   12.74
   6   4 -10  214.35   14.60
  -6   4  10  122.78   54.76
   6   4 -10  222.01   12.50
   4  -4 -10  349.41   21.36
   4  -4 -10  313.77   57.20
   4   4 -10  342.54   19.78
   4   4 -10  341.31   17.64
  -4   4  10  438.04   76.14
   4   4 -10  305.12   50.70
   4   4 -10  339.75   17.00
   2  -4 -10  378.63   66.33
   2  -4 -10  444.60   24.84
   2   4 -10  445.82   22.79
   2   4 -10  358.03   19.54
   2   4 -10  420.54   60.66
   2   4 -10  428.09   19.21
  -2   4  10  487.74   78.77
   0  -4 -10  237.45   56.43
   0  -4  10  256.51   55.70
   0   4 -10  282.99   16.39
   0   4  10  314.07   62.72
   0   4 -10  273.57   48.96
  -2  -4 -10  358.15   66.71
   2  -4  10  253.15   54.74
  -2  -4 -10  275.73   18.29
  -2   4 -10  334.26   52.21
  -2   4 -10  300.95   16.46
  -2   4 -10  269.82   18.58
   2   4  10  254.79   61.07
  -4  -4 -10  371.27   22.88
   4  -4  10  406.78   63.32
  -4  -4 -10  477.01   73.33
  -4   4 -10  399.25   20.57
   4   4  10  340.17   65.86
  -4   4 -10  422.23   50.86
  -4   4 -10  419.37   24.36
   6  -4  10  263.99   51.68
  -6  -4 -10  316.75   20.15
  -6  -4 -10  451.71   70.20
  -6   4 -10  339.85   17.32
  -6   4 -10  363.26   46.56
  -6   4 -10  341.19   21.63
   8  -4  10  115.20   39.99
  -8  -4 -10  172.05   13.29
  -8  -4 -10  172.12   49.67
  -8   4 -10  191.07    9.93
   8   4  10  211.31   15.58
  -8   4 -10  140.08   35.85
  -8   4 -10  207.66   15.55
   8   4  10  200.05   58.57
 -10  -4 -10  172.12   12.99
 -10  -4 -10  191.14   52.47
  10  -4  10  100.57   41.40
 -10   4 -10  195.69   37.38
  10   4  10  196.24   15.14
  10   4  10  206.57   59.61
 -10   4 -10  196.10   15.31
 -12  -4 -10  182.04   12.85
 -12  -4 -10  175.04   53.08
 -12   4 -10   97.18   35.75
  12   4  10  240.16   59.21
 -12   4 -10  189.31   15.61
  12   4  10  193.61   15.52
 -14  -4 -10   44.81   48.93
 -14  -4 -10  100.15    8.52
  14   4  10  106.38   11.41
  14   4  10   36.71   55.48
 -14   4 -10  115.44   11.81
 -16  -4 -10   85.79    7.62
 -16  -4 -10   99.15    9.74
  16   4  10  108.37   11.24
 -16   4 -10   97.31   11.29
 -18  -4 -10   79.88    8.89
  18   4  10   88.53   10.49
 -18   4 -10   81.63   12.31
 -20  -4 -10   54.19    8.49
 -20   4 -10   54.51    9.91
  20   4  10   46.72    9.86
 -22  -4 -10   25.50    5.44
 -22   4 -10   27.55    6.77
  22   4  10   32.76    8.42
  24   4  10   30.82    7.91
 -24   4 -10   18.52    6.07
  25  -5 -10    3.10    4.20
  25   5 -10   -0.65    3.43
  25   5 -10    6.37    4.71
  23  -5 -10   18.84    5.83
  23   5 -10    4.68    4.47
  23   5 -10   14.82    5.45
  21  -5 -10   17.05    5.49
 -21  -5  10  111.28  104.53
  21   5 -10    6.30    4.21
  21   5 -10   21.27    6.39
  21   5 -10    4.88   69.11
  19  -5 -10   59.26   56.28
 -19  -5  10  -51.93   83.97
  19  -5 -10   28.21    6.79
  19   5 -10    9.77    4.65
 -19   5  10  -64.43   69.11
  19   5 -10   12.99    4.80
  19   5 -10   17.69   57.53
 -17  -5  10   48.74   75.02
  17  -5 -10   32.62    6.87
  17  -5 -10   50.70   52.16
 -17   5  10  -29.30   63.96
  17   5 -10   55.02   51.99
  17   5 -10   18.91    5.76
  17   5 -10   18.00    5.33
  15  -5 -10   12.35    5.29
 -15  -5  10   48.10   66.86
  15  -5 -10   11.92   46.19
  15   5 -10   25.54    5.89
 -15   5  10   19.61   58.80
  15   5 -10  -17.39   42.66
  15   5 -10    7.79    4.04
 -13  -5  10   49.71   59.37
  13  -5 -10  -23.10   39.68
  13  -5 -10   38.40    7.77
  13   5 -10   31.25    6.26
 -13   5  10  -93.54   50.51
  13   5 -10   13.96    4.88
  13   5 -10  112.39   44.68
  11  -5 -10   33.17    7.63
  11  -5 -10   18.01   39.83
 -11  -5  10  -14.30   38.15
  11   5 -10   29.14   37.20
 -11   5  10  -32.44   36.90
  11   5 -10   23.07    5.56
  11   5 -10   27.10    5.25
   9  -5 -10   49.06   41.12
   9  -5 -10   17.59    5.58
   9   5 -10   32.95   28.38
   9   5 -10   23.41    4.49
  -9   5  10   18.52   48.93
   9   5 -10   20.01    5.61
   7  -5 -10   26.55   38.09
   7  -5 -10   16.97    5.15
   7   5 -10   21.62    5.38
   7   5 -10   23.77    4.29
  -7   5  10  -31.25   43.58
   7   5 -10  -31.45   31.10
  -5  -5  10   69.02   45.46
   5  -5 -10   65.19   41.87
   5  -5 -10   22.20    6.05
   5   5 -10   -5.45   29.82
   5   5 -10   23.14    5.23
  -5   5  10   20.56   45.16
   5   5 -10   24.89    3.77
   3  -5 -10    2.72   36.48
  -3  -5  10    1.56   37.83
   3  -5 -10   16.31    5.47
  -3   5  10   36.12   43.00
   3   5 -10   15.99    4.91
   3   5 -10   55.48   32.20
   3   5 -10   26.41    5.24
  -1  -5  10  -37.88   33.11
   1  -5 -10   18.09    5.33
   1  -5 -10   19.57   36.65
   1   5 -10   10.18    4.32
   1   5 -10   11.21    3.67
   1   5 -10   -6.74   27.74
  -1   5  10   11.59   41.62
  -1  -5 -10   17.18   28.57
   1  -5  10   28.21   35.45
  -1  -5 -10   11.97    4.54
  -1   5 -10   12.60    3.68
  -1   5 -10   11.40    4.21
   1   5  10  -62.24   36.04
  -1   5 -10   14.14   24.20
  -3  -5 -10   25.46    5.92
   3  -5  10   -4.42   31.29
  -3  -5 -10  -12.61   27.49
  -3   5 -10   28.29    6.94
   3   5  10    7.05   41.78
  -3   5 -10   22.27   25.98
  -5  -5 -10   22.51    5.44
  -5  -5 -10   16.70   38.96
   5  -5  10   -9.90   30.68
  -5   5 -10  -22.21   23.09
  -5   5 -10   22.51    5.92
  -7  -5 -10    4.14    3.48
  -7  -5 -10   -7.45   38.06
   7  -5  10  -16.98   33.37
   7   5  10   42.01   45.52
  -7   5 -10   14.99   25.75
  -7   5 -10    7.71    4.00
  -7   5 -10    1.54    1.28
  -9  -5 -10  -20.56   40.63
   9  -5  10   37.67   35.55
  -9  -5 -10   22.10    5.57
  -9   5 -10    7.94   25.87
  -9   5 -10   18.38    5.96
   9   5  10   14.93   36.21
   9   5  10   41.63    8.77
 -11  -5 -10    6.69    3.94
 -11  -5 -10   24.63   45.69
  11   5  10   45.49   49.48
  11   5  10   10.90    4.79
 -11   5 -10    7.90    4.69
 -13  -5 -10   14.46    4.29
 -13  -5 -10   22.80   45.31
  13   5  10   19.66    6.13
  13   5  10   -6.08   50.84
 -13   5 -10    5.22    4.03
 -15  -5 -10   12.11    3.73
 -15   5 -10    6.18    4.36
  15   5  10    7.91    4.74
 -17  -5 -10   16.62    4.50
 -17  -5 -10    8.74    3.17
  17   5  10   13.13    6.07
 -17   5 -10    6.78    5.07
 -19  -5 -10    1.06    2.69
  19   5  10    7.22    5.10
 -19   5 -10   10.70    5.49
 -21  -5 -10   -0.97    0.88
 -21  -5 -10   -0.35    0.80
 -21   5 -10    0.67    3.41
  21   5  10    1.93    3.94
 -23  -5 -10   -0.19    1.01
 -23   5 -10    1.87    3.49
  23   5  10    5.24    5.18
  22  -6 -10   15.99    5.31
  22   6 -10   17.41    5.87
  22   6 -10    6.96    4.72
  20  -6 -10   37.91    7.72
  20   6 -10   23.08   71.02
  20   6 -10   23.05    6.74
  20   6 -10   21.07    6.53
  18  -6 -10   37.55    7.50
  18   6 -10   38.96    7.61
  18   6 -10  -46.72   59.61
  18   6 -10   50.32    9.21
 -18   6  10   23.16   72.12
  16  -6 -10   37.54   56.18
  16  -6 -10   59.90   10.35
  16   6 -10   69.35   10.52
  16   6 -10   50.69    8.55
 -16   6  10   -5.45   68.93
  16   6 -10   21.93   53.89
  14  -6 -10   -7.99   47.41
  14  -6 -10   58.32    9.90
  14   6 -10   11.63   47.84
 -14   6  10  118.87   63.94
  14   6 -10   64.35   10.00
  14   6 -10   58.10    8.75
 -12  -6  10   92.63   65.95
  12  -6 -10   70.61   50.51
  12  -6 -10   97.74   10.97
  12   6 -10  110.33    9.84
  12   6 -10   92.24   10.02
 -12   6  10   63.74   57.96
  12   6 -10   96.93    9.02
  12   6 -10  108.53   47.91
 -10  -6  10  195.56   66.86
  10  -6 -10  125.20   12.45
  10  -6 -10   25.13   47.56
 -10   6  10  -59.65   52.43
  10   6 -10  151.45   11.93
  10   6 -10  141.51   12.00
  10   6 -10  112.55   48.27
  10   6 -10  113.92    9.55
  -8  -6  10   79.99   56.06
   8  -6 -10   97.49   48.56
   8  -6 -10  106.72   11.25
   8   6 -10  140.70   49.18
   8   6 -10  104.10   10.06
   8   6 -10  134.27   10.94
   8   6 -10   88.48    7.61
  -8   6  10   16.22   52.02
  -6  -6  10  126.83   53.90
   6  -6 -10  131.95   46.88
   6  -6 -10  139.58   12.70
   6   6 -10  124.77   43.81
  -6   6  10   38.69   53.01
   6   6 -10  126.95   11.35
   6   6 -10  130.18   11.12
   4  -6 -10  117.58   54.48
  -4  -6  10  273.72   63.05
   4  -6 -10  152.14   13.48
   4   6 -10  160.42   12.36
   4   6 -10  151.23   12.71
   4   6 -10  151.00   43.05
  -4   6  10   45.14   54.81
   2  -6 -10  119.40   52.40
  -2  -6  10   80.66   44.99
   2  -6 -10  168.65   14.40
   2   6 -10  176.28   12.73
   2   6 -10  187.14   14.19
  -2   6  10  128.09   58.40
   2   6 -10  232.75   48.29
   0  -6 -10  201.68   60.02
   0  -6  10   90.14   44.79
   0  -6 -10  165.93   13.95
   0   6 -10   64.04   35.12
   0   6 -10  174.13   11.93
   0   6 -10  155.91   13.29
   0   6  10  276.25   67.10
  -2  -6 -10  174.07   14.27
   2  -6  10  125.10   46.89
  -2  -6 -10   88.07   49.20
  -2   6 -10  170.56   13.93
  -2   6 -10  175.70   11.76
   2   6  10   60.06   51.31
  -2   6 -10  160.43   41.75
  -4  -6 -10  211.78   16.03
  -4  -6 -10  128.80   51.87
   4  -6  10  280.10   56.60
  -4   6 -10  189.74   40.29
   4   6  10  243.32   66.19
  -4   6 -10  198.71   15.66
  -4   6 -10  211.91   12.62
  -6  -6 -10  160.16   47.84
  -6  -6 -10  198.20   15.01
   6  -6  10  133.32   43.83
   6   6  10  211.86   65.38
  -6   6 -10  192.02   15.42
  -6   6 -10  111.69   33.37
  -8  -6 -10  139.71   12.77
  -8  -6 -10  178.54   57.63
   8   6  10  134.18   57.82
  -8   6 -10  145.08   13.54
   8   6  10  162.19   14.63
 -10  -6 -10  186.05   56.54
 -10  -6 -10  135.83   12.12
  10   6  10  151.24   14.31
 -10   6 -10  124.38   12.80
  10   6  10   74.66   58.89
 -12  -6 -10   18.98   51.28
 -12  -6 -10   97.44    9.72
 -12   6 -10   95.19   11.06
  12   6  10  109.61   15.11
  12   6  10   15.03   57.19
 -14  -6 -10   54.30    8.42
  14   6  10   62.74   10.90
 -14   6 -10   83.39   12.85
 -16  -6 -10   50.45    7.83
 -16   6 -10   68.74   11.65
  16   6  10   64.12   12.02
 -18  -6 -10   52.56    8.15
 -18  -6 -10   46.68    7.05
 -18   6 -10   43.03    8.97
  18   6  10   33.37    8.87
 -20   6 -10   29.74    8.13
  20   6  10   38.57    9.90
  22   6  10   11.99    6.94
 -22   6 -10   18.81    6.24
  21  -7 -10    3.85    4.21
  21   7 -10    6.72    4.65
  21   7 -10    7.14    5.22
  21   7 -10    9.23    3.34
 -19  -7  10  -78.49  111.56
  19  -7 -10    8.11    5.02
  19   7 -10    5.52    3.07
  19   7 -10    8.38    4.59
  19   7 -10    6.00    5.04
  19   7 -10   63.93   77.28
  17  -7 -10    9.61    4.65
 -17  -7  10  -12.16   86.79
  17   7 -10   12.34    3.82
  17   7 -10    5.05    4.36
  17   7 -10    4.00    3.72
  17   7 -10  -97.62   65.30
  15  -7 -10   35.58   61.28
 -15  -7  10  -85.92   77.61
  15  -7 -10   14.63    5.60
  15   7 -10   10.36    4.25
  15   7 -10   -1.98   58.10
  15   7 -10   15.92    4.51
 -15   7  10  -44.52   72.41
  15   7 -10   13.71    5.21
  13  -7 -10  -66.73   54.30
 -13  -7  10  108.97   74.31
  13  -7 -10    9.34    5.10
  13   7 -10    8.92    3.35
 -13   7  10   58.83   69.80
  13   7 -10   32.43   53.15
  13   7 -10    3.93    4.12
  13   7 -10   13.78    4.09
  11  -7 -10   18.72   55.56
  11  -7 -10   16.96    5.55
 -11  -7  10   14.04   61.87
  11   7 -10   17.33    4.94
 -11   7  10  -46.22   60.72
  11   7 -10    8.56    4.67
  11   7 -10   44.76   47.21
   9  -7 -10  -52.84   46.86
   9  -7 -10   11.65    5.11
  -9  -7  10  125.66   61.16
  -9   7  10  -29.96   58.38
   9   7 -10  -36.41   30.09
   9   7 -10   23.27    5.88
   9   7 -10   13.15    4.60
   7  -7 -10    9.65    4.92
  -7  -7  10  -48.55   51.07
   7  -7 -10  -18.82   48.95
  -7   7  10   34.96   55.04
   7   7 -10   12.89    4.37
   7   7 -10   13.59   37.77
   7   7 -10    8.07    4.18
   5  -7 -10   11.88    5.08
   5  -7 -10   88.49   50.81
  -5  -7  10   18.00   48.99
  -5   7  10   43.89   56.34
   5   7 -10   11.39    4.37
   5   7 -10   27.77   37.63
   5   7 -10   11.27    4.18
   3  -7 -10    7.20    4.52
   3  -7 -10   -2.39   45.35
  -3  -7  10    3.46   45.18
   3   7 -10   15.60    4.64
   3   7 -10   11.46    4.35
  -3   7  10  -58.59   38.85
   3   7 -10  -26.91   33.66
   1  -7 -10   13.60   47.04
  -1  -7  10    6.23   41.55
   1  -7 -10    1.27    3.53
   1   7 -10    5.10    3.96
  -1   7  10   27.82   54.01
   1   7 -10  -10.61   31.82
   1   7 -10   12.93    4.01
  -1  -7 -10    0.76    2.82
   1  -7  10    8.79   40.53
  -1  -7 -10  -17.50   47.83
  -1   7 -10    7.53    3.42
  -1   7 -10   -4.96   30.37
   1   7  10  -54.06   38.69
  -1   7 -10   10.83    4.38
  -3  -7 -10   11.69    5.18
  -3  -7 -10   26.87   48.59
   3   7  10  -60.54   55.49
  -5  -7 -10   -2.52   48.16
  -5  -7 -10    9.93    4.41
  -5   7 -10   11.01    4.60
  -7  -7 -10   12.25    4.90
  -7  -7 -10   -0.68   52.66
   7   7  10   31.43   58.94
  -7   7 -10    5.93    4.13
  -9  -7 -10    4.44    3.67
  -9  -7 -10    6.27   54.73
  -9   7 -10    9.55    4.52
   9   7  10   23.94   63.31
   9   7  10    8.53    5.32
 -11  -7 -10    0.94    2.98
 -11  -7 -10  -24.88   60.31
  11   7  10   13.93    5.56
  11   7  10    4.74   69.15
 -11   7 -10    0.16    3.00
 -13  -7 -10   -1.29    2.40
 -13   7 -10    1.48    3.62
  13   7  10    0.45    3.57
 -15  -7 -10    3.36    3.48
 -15   7 -10    2.57    4.05
  15   7  10    1.64    4.36
 -17  -7 -10    8.51    4.08
 -17  -7 -10   -0.37    1.17
  17   7  10    1.58    4.10
 -17   7 -10    1.04    3.91
 -19  -7 -10   -0.64    2.55
 -19  -7 -10   -0.15    0.98
 -19   7 -10   -3.35    2.55
  19   7  10    0.17    3.96
  20  -8 -10   19.69    6.25
  20   8 -10   13.82    5.83
  20   8 -10   19.69    4.33
  20   8 -10   20.16    6.98
  18  -8 -10   39.90    8.31
 -18  -8  10  -29.46  121.80
  18   8 -10   31.56    7.97
  18   8 -10   29.58    5.52
  18   8 -10   31.65    7.81
  16  -8 -10   45.63    8.98
 -16  -8  10  155.08  107.40
  16   8 -10  -24.21   70.37
  16   8 -10   29.84    7.61
  16   8 -10   46.82    7.17
  14  -8 -10   81.00   11.90
 -14  -8  10   25.02   88.65
  14   8 -10   55.18    9.73
  14   8 -10   43.84    7.78
  14   8 -10    4.52   65.73
  12  -8 -10   60.58   10.77
  12  -8 -10   47.74   64.33
 -12  -8  10   -6.12   78.82
  12   8 -10   57.11    9.36
 -12   8  10   24.60   77.51
  12   8 -10   20.31   58.95
  10  -8 -10  140.93   65.87
 -10  -8  10   51.79   69.36
  10  -8 -10   83.92   12.58
  10   8 -10   89.61    9.23
  10   8 -10  137.66   59.89
 -10   8  10    9.41   70.75
  10   8 -10   63.86   10.45
   8  -8 -10  104.33   11.56
   8  -8 -10  169.20   69.87
  -8  -8  10  103.13   64.65
   8   8 -10   90.89   49.77
  -8   8  10  -20.42   67.08
   8   8 -10   83.93    9.38
  -6  -8  10   81.44   69.41
   6  -8 -10  107.61   12.03
   6  -8 -10  110.05   64.68
  -6   8  10  -66.45   64.76
   6   8 -10  112.28   50.02
   6   8 -10  125.75   11.28
   6   8 -10  106.37   11.01
   4  -8 -10  163.72   72.23
   4  -8 -10  118.12   12.82
   4   8 -10  143.74   12.40
   4   8 -10  127.52   11.63
  -4   8  10   14.70   63.56
   2  -8 -10   64.50   62.89
   2  -8 -10  120.84   12.67
  -2   8  10  -38.50   64.24
   2   8 -10  142.75   12.54
   2   8 -10  119.77   10.83
   0  -8 -10   73.63   60.77
   0   8  10  -50.76   64.37
  -2  -8 -10  115.45   65.63
  -2  -8 -10  151.59   13.92
  -2   8 -10  128.43   10.15
  -2   8 -10  147.49   13.26
   2   8  10   16.38   64.62
  -4  -8 -10  138.06   55.07
  -4  -8 -10  120.55   12.63
  -4   8 -10  131.92   12.58
  -6  -8 -10  112.48   12.45
  -6  -8 -10  125.76   70.30
  -6   8 -10  117.11   12.32
   6   8  10  175.07   79.55
  -8  -8 -10  100.87   71.79
  -8  -8 -10   95.77   13.26
   8   8  10   84.43   78.40
  -8   8 -10   98.68   11.51
   8   8  10  116.21   16.41
 -10  -8 -10  135.35   75.11
 -10  -8 -10   69.20   11.70
  10   8  10  113.30   16.24
  10   8  10  -32.75   81.64
 -10   8 -10  107.91   12.15
 -12  -8 -10   63.71   10.51
 -12   8 -10   50.60    9.41
  12   8  10   79.66   13.07
 -14  -8 -10   60.65   10.00
  14  -8  10   78.00   59.99
 -14   8 -10   55.38   11.18
  14   8  10   51.67   10.80
 -16  -8 -10   29.48    6.93
 -16   8 -10   26.94    7.64
  16   8  10   25.32    8.17
 -18  -8 -10   26.37    6.26
  18   8  10   41.89   10.04
 -18   8 -10   29.94    8.34
  17  -9 -10    3.92    4.59
  17   9 -10    9.88    3.75
  17   9 -10   21.30    7.15
  15  -9 -10    7.52    5.09
  15   9 -10   -0.68    1.42
  15   9 -10   12.72    5.77
  15   9 -10    2.93    2.93
  13  -9 -10    7.99    5.49
  13   9 -10    4.16    4.52
  13   9 -10   11.52    3.74
  11  -9 -10   14.35    6.24
  11   9 -10   10.89    3.87
  11   9 -10   16.08    5.47
   9  -9 -10   24.20    7.09
   9   9 -10   14.24    4.69
   9   9 -10   10.11    5.11
  -9   9  10  -30.19   82.69
   9   9 -10    0.13    1.00
   7  -9 -10   38.28   69.87
  -7   9  10   36.06   85.35
   5  -9 -10   72.35   72.02
   5  -9 -10   15.55    6.03
   5   9 -10   18.67    5.64
   5   9 -10   10.00    4.37
  -5   9  10    6.49   77.03
   3  -9 -10   62.30   71.55
  -3   9  10 -118.43   73.82
   1  -9 -10  -28.53   67.55
   1  -9 -10    6.08    5.12
  -1   9  10  -40.32   77.98
   1   9 -10   10.54    4.50
   1   9 -10    2.97    3.49
  -1  -9 -10    8.68    5.29
  -1  -9 -10  -10.21   67.35
  -1   9 -10    3.46    3.42
   1   9  10  -33.78   79.25
  -3  -9 -10  -36.09   68.29
  -3  -9 -10   13.53    5.25
  -3   9 -10    3.18    4.17
  -5  -9 -10  -49.93   51.70
   5   9  10  125.79   87.75
  -7  -9 -10    1.90    3.58
  -7  -9 -10  -44.51   75.23
   7   9  10   22.87   86.44
  -7   9 -10   -0.08    3.19
  -9  -9 -10   69.28   93.90
   9   9  10   30.64  112.57
 -11  -9 -10   -1.57    3.18
  11   9  10    5.45    5.56
 -11   9 -10    4.43    4.35
 -13  -9 -10    2.00    3.86
 -13   9 -10    1.34    3.58
  13   9  10    3.72    4.64
 -15  -9 -10    9.33    4.86
  15   9  10    6.90    5.60
 -15   9 -10   11.48    5.34
  14 -10 -10   30.52    7.95
  14  10 -10   31.92    6.59
  12 -10 -10   48.60    9.95
  12  10 -10   33.75    6.32
  12  10 -10   32.25    8.00
  10 -10 -10   38.89    9.32
  10  10 -10   59.04   10.37
  10  10 -10   61.79    9.39
   8 -10 -10   41.45    9.54
   8  10 -10   72.14   10.60
   8  10 -10   52.54   10.20
   6 -10 -10   62.24   11.57
   6  10 -10   64.62   10.10
   6  10 -10   68.82   10.06
   4 -10 -10   82.25   13.05
   4  10 -10   75.47   11.23
   4  10 -10   88.99   12.17
   2 -10 -10  -68.49  141.88
  -2  10  10  -54.26  100.73
   0 -10 -10  101.02   14.89
   0 -10 -10   51.33   90.40
   0  10 -10  117.77   11.98
   0  10  10   34.62   74.23
  -2 -10 -10   58.85   88.57
  -2 -10 -10   73.49   12.76
   2  10  10   40.72  110.05
  -2  10 -10  102.07   11.45
  -4 -10 -10  118.15   73.48
  -4 -10 -10   67.13   11.47
   4  10  10   37.86  106.26
  -4  10 -10   70.80   11.13
  -6 -10 -10   72.93   12.15
  -6 -10 -10   78.98   94.78
  -6  10 -10   64.46   10.82
   6  10  10   91.11  112.13
  -8 -10 -10   46.37    9.45
  -8  10 -10   75.64   12.98
 -10 -10 -10   49.09    9.63
  10  10  10   54.41   11.39
 -10  10 -10   53.72   10.56
 -12 -10 -10   46.44    9.68
  12  10  10   52.00   11.47
 -12  10 -10   28.90    8.30
   7 -11 -10    3.93    4.72
   7  11 -10    4.60    3.66
   7  11 -10    3.86    4.00
   5 -11 -10    5.23    4.77
   3 -11 -10    1.44    4.26
   3  11 -10    6.73    4.04
   1 -11 -10    0.05    3.66
   1  11 -10    1.40    2.99
  -1 -11 -10    2.26    4.37
  -1  11 -10    6.04    4.17
  -3 -11 -10    2.84    4.65
  -3  11 -10   -2.26    2.81
  -5 -11 -10    1.71    4.04
  -5  11 -10    7.78    5.08
  -7 -11 -10    3.38    4.39
  -7  11 -10    2.67    4.25
  24   0 -11    5.98    4.33
  24   0 -11    7.54    4.74
  22   0 -11    4.66    3.91
  22   0 -11   13.78    5.58
  20   0 -11   20.63   60.36
 -20   0  11  -54.82   90.08
  20   0 -11    8.64    4.52
 -18   0  11  -72.02   75.80
  18   0 -11   18.83    5.43
  18   0 -11  -12.32   51.08
 -16   0  11  -21.25   71.46
  16   0 -11   -1.75   45.81
  16   0 -11    8.09    3.83
  14   0 -11  -14.51   42.74
  14   0 -11   15.11    4.98
 -14   0  11   12.05   46.10
  12   0 -11   40.19   42.24
 -12   0  11  -92.11   52.43
  10   0 -11  -11.21   33.45
 -10   0  11   24.53   49.63
  10   0 -11   19.17    5.38
   8   0 -11   15.25    4.79
   8   0 -11  -11.89   34.65
  -8   0  11   -5.08   34.71
   6   0 -11   11.73    4.32
  -6   0  11  -24.27   43.50
   6   0 -11   20.58   33.11
   4   0 -11   18.63   32.43
   4   0 -11   19.55    4.88
  -4   0  11   55.63   45.53
   2   0 -11   36.42    7.08
   2   0 -11   48.50    7.26
  -2   0  11   36.10   43.88
   2   0 -11   21.24   32.49
   0   0 -11    7.33    2.90
   0   0 -11    6.43   29.54
   0   0 -11    1.07    2.39
   2   0  11  -42.25   35.24
  -2   0 -11    2.06    2.58
  -2   0 -11   14.05   26.51
  -2   0 -11    0.06    1.90
  -4   0 -11   14.86    3.95
   4   0  11   22.02   37.60
  -4   0 -11   11.16    4.06
  -4   0 -11  -12.64   27.33
  -6   0 -11   12.16    3.62
   6   0  11  -50.82   34.45
  -6   0 -11   11.15   28.00
  -6   0 -11   17.44    4.80
   8   0  11   -8.38   37.08
  -8   0 -11   24.75   29.89
  -8   0 -11    8.74    3.40
  -8   0 -11    8.82    2.87
 -10   0 -11   22.45   30.94
  10   0  11    1.37   41.87
 -12   0 -11   11.22    2.32
 -12   0 -11    7.29    4.15
 -14   0 -11    5.80    3.94
 -16   0 -11    1.92    3.17
  16   0  11   -1.93    2.08
  18   0  11    2.96    3.04
 -18   0 -11    3.63    3.68
 -20   0 -11    5.57    4.25
  20   0  11    4.77    3.25
 -22   0 -11   -0.45    2.90
  22   0  11    0.69    2.64
  24   0  11    0.35    3.13
 -24   0 -11    5.24    3.91
  25  -1 -11   16.91    5.84
  25  -1 -11    4.41    4.56
  25   1 -11   10.10    4.43
  25   1 -11   10.15    5.23
  23  -1 -11   27.20    6.36
  23   1 -11   18.50    6.14
  23   1 -11   14.29    4.87
 -21  -1  11  120.92  104.89
 -21   1  11  252.24  170.85
  19  -1 -11   -1.09   55.08
 -19  -1  11   30.33   87.08
  19  -1 -11   39.76    7.67
  19   1 -11   39.19    7.89
  19   1 -11   58.63   57.86
  19   1 -11   44.27    8.34
 -19   1  11  -12.17   81.29
  17  -1 -11   78.31   51.60
 -17  -1  11  -38.47   75.64
  17  -1 -11   43.88    8.03
 -17   1  11  -41.24   69.22
  17   1 -11   74.03   53.12
  17   1 -11   46.66    8.19
  15  -1 -11  138.99   51.81
 -15  -1  11 -166.56   62.65
 -15   1  11   44.14   64.53
  15   1 -11    2.59   43.01
 -13  -1  11   12.17   61.17
  13  -1 -11   99.11    9.94
  13  -1 -11   79.38   45.71
  13   1 -11   91.90    9.67
 -13   1  11   12.77   54.88
  13   1 -11   75.20   46.40
  11  -1 -11  126.10   45.32
  11  -1 -11  118.22   11.01
 -11  -1  11  117.29   60.78
  11   1 -11   84.79   45.28
  11   1 -11  136.42   11.23
 -11   1  11  107.55   63.24
   9  -1 -11  132.78   11.41
  -9  -1  11  132.79   50.13
   9  -1 -11  160.47   49.79
   9   1 -11  124.72   43.80
  -9   1  11  221.57   65.13
   9   1 -11  112.82   10.40
   7  -1 -11  148.79   46.17
   7  -1 -11  143.68   11.92
  -7  -1  11  117.66   56.84
  -7   1  11   86.71   55.90
   7   1 -11  136.83   44.71
   7   1 -11  164.14   12.39
   5  -1 -11  245.43   53.18
   5  -1 -11  227.32   15.49
  -5  -1  11  235.48   58.95
   5   1 -11  217.07   14.99
  -5   1  11  188.43   52.22
   5   1 -11  220.21   15.03
   5   1 -11  218.52   52.23
  -3  -1  11  137.71   50.72
   3  -1 -11  233.00   15.45
   3  -1 -11  228.47   50.36
   3   1 -11  224.91   15.16
   3   1 -11  248.02   15.42
  -3   1  11  132.54   45.08
   3   1 -11  145.51   47.33
   1  -1 -11  204.28   14.12
   1  -1 -11  161.91   45.63
   1   1 -11  205.24   13.71
   1   1 -11  139.60   41.26
  -1   1  11  204.34   55.72
   1   1 -11  205.69   14.06
  -1  -1 -11  205.37   14.35
   1  -1  11  167.55   53.20
  -1  -1 -11  208.12   49.46
  -1   1 -11  225.36   14.68
  -1   1 -11  240.66   48.26
  -1   1 -11  219.21   14.04
   3  -1  11  113.37   48.32
  -3  -1 -11  252.89   53.14
  -3  -1 -11  236.40   14.67
   3   1  11  193.50   56.32
  -3   1 -11  279.37   50.34
  -3   1 -11  213.85   14.21
  -3   1 -11  208.75   13.60
  -5  -1 -11  188.15   12.64
  -5  -1 -11  232.26   51.39
   5  -1  11  192.53   53.38
  -5  -1 -11  140.12   14.64
  -5   1 -11  242.31   45.93
  -5   1 -11  189.17   11.96
  -5   1 -11  184.78   12.26
   5   1  11  175.50   55.44
  -7  -1 -11  174.70   12.01
   7  -1  11  175.52   52.02
  -7  -1 -11  161.82   41.97
   7   1  11  247.57   57.64
  -7   1 -11  149.52   41.52
  -7   1 -11  190.09   11.58
  -9  -1 -11  148.02   10.61
  -9  -1 -11   77.27   43.39
   9  -1  11  131.04   51.16
   9   1  11   86.87   44.87
  -9   1 -11  161.36   13.76
  -9   1 -11  179.40   10.21
  -9   1 -11  173.80   43.83
 -11  -1 -11  131.06    8.74
 -11  -1 -11   84.01   39.90
 -11   1 -11  124.11   11.97
 -11   1 -11  106.05    6.95
 -11   1 -11   99.39   37.07
  11   1  11   65.00   48.52
 -13  -1 -11   98.38   10.94
 -13  -1 -11  120.65    7.60
 -13   1 -11  116.03   11.83
 -15  -1 -11   78.63   11.74
  15   1  11   65.01    7.55
 -15   1 -11   67.41   10.34
 -17  -1 -11   38.27    7.81
 -17   1 -11   47.18    9.14
  17   1  11   59.29    8.99
 -19  -1 -11   58.67   10.31
  19  -1  11   61.61    6.40
 -19   1 -11   63.62   10.97
  19   1  11   59.69    9.20
 -21  -1 -11   33.54    7.92
  21  -1  11   32.03    5.72
 -21   1 -11   39.42    8.90
  21   1  11   34.07    6.94
 -23  -1 -11   29.62    7.36
 -23   1 -11   22.40    6.77
  23   1  11   14.38    5.27
  24  -2 -11   10.52    5.13
  24   2 -11    5.26    4.41
  24   2 -11    3.72    4.20
  22  -2 -11   17.76    5.63
  22   2 -11   18.10    5.67
  22   2 -11   13.55    5.67
  20  -2 -11   11.27    4.93
 -20  -2  11 -182.32   89.22
  20   2 -11   22.33    5.88
 -20   2  11  -87.35   89.61
  20   2 -11   33.93   64.75
  20   2 -11   12.54    4.77
  18  -2 -11   16.97   54.67
 -18  -2  11  -44.13   82.78
  18  -2 -11   17.87    5.44
 -18   2  11   40.47   81.97
  18   2 -11   17.66    4.81
  18   2 -11   16.14    5.22
  18   2 -11   60.63   58.11
 -16  -2  11  -83.03   69.73
  16  -2 -11   13.33    4.92
  16  -2 -11   48.14   48.39
  16   2 -11  133.43   53.23
  16   2 -11   17.44    5.25
  16   2 -11   17.63    4.90
 -16   2  11   17.84   69.23
 -14  -2  11  -31.98   48.21
  14  -2 -11   23.32   36.05
  14  -2 -11   24.73    5.91
  14   2 -11   30.86    6.56
  14   2 -11   23.03   44.48
  14   2 -11   31.88    6.52
 -14   2  11   45.48   47.59
  12  -2 -11   30.97    6.80
  12  -2 -11   29.04   31.20
 -12  -2  11   -4.58   61.19
 -12   2  11   54.16   56.93
  12   2 -11  -15.04   38.01
  12   2 -11   27.21    6.26
  10  -2 -11   12.53   36.09
 -10  -2  11   58.71   56.54
  10  -2 -11   15.69    4.69
  10   2 -11    8.22   34.88
  10   2 -11   12.72    4.57
 -10   2  11    2.08   49.86
   8  -2 -11   24.75   35.53
  -8  -2  11   34.53   48.77
   8  -2 -11    9.84    4.19
   8   2 -11    9.49    4.10
  -8   2  11   -5.48   33.10
   8   2 -11   44.86   30.37
   6  -2 -11   15.86   25.26
  -6  -2  11  -17.71   44.20
   6  -2 -11   13.45    4.49
  -6   2  11   79.41   47.57
   6   2 -11    8.14    3.56
   6   2 -11  -47.30   28.50
   6   2 -11   15.14    4.22
   4  -2 -11   16.60   33.67
   4  -2 -11    9.19    3.83
   4   2 -11  -25.04   29.45
  -4   2  11   31.20   43.12
   4   2 -11    8.67    3.64
   4   2 -11   10.40    3.64
   2  -2 -11   11.68    4.29
   2  -2 -11   49.76   35.85
   2   2 -11   21.21    4.68
   2   2 -11   14.49    4.23
  -2   2  11   -6.74   39.41
   2   2 -11    1.60   29.46
   0  -2 -11   47.84   35.53
   0  -2  11   -1.84   36.72
   0  -2 -11   12.70    4.22
   0   2 -11   13.60    3.66
   0   2  11   40.91   41.84
   0   2 -11   32.16   28.49
   0   2 -11   10.00    3.50
  -2  -2 -11  -21.59   30.62
  -2  -2 -11    2.03    2.59
   2  -2  11  -48.07   34.30
  -2   2 -11   30.83   28.33
  -2   2 -11   -0.77    0.88
  -2   2 -11    0.87    1.94
  -4  -2 -11  -26.58   24.08
   4  -2  11   59.37   38.68
  -4  -2 -11    9.58    3.42
  -4   2 -11    7.59    2.94
   4   2  11   -3.10   37.13
  -4   2 -11   16.31   28.66
  -6  -2 -11   11.21    3.63
   6  -2  11   28.08   39.72
  -6  -2 -11  -17.43   33.22
   6   2  11    5.99   40.56
  -6   2 -11   31.26   26.74
  -6   2 -11   15.95    3.36
  -8  -2 -11    2.51    2.62
  -8  -2 -11  -24.90   32.08
   8  -2  11  -59.66   39.16
  -8   2 -11   -0.12    1.49
  -8   2 -11  -21.12   25.12
   8   2  11   -7.26   39.60
  -8   2 -11    1.84    3.24
  -8   2 -11    0.41    0.70
 -10  -2 -11  -22.24   33.16
 -10  -2 -11    0.40    1.83
 -10   2 -11    8.45   31.08
  10   2  11   59.63   44.40
 -10   2 -11    0.47    2.76
 -12  -2 -11    0.20    2.00
 -12  -2 -11    7.79    2.84
 -12   2 -11    1.99    3.25
 -14  -2 -11    0.04    1.69
 -14  -2 -11    4.43    3.58
 -14  -2 -11    3.00    2.11
 -14   2 -11    7.13    4.59
  14   2  11    0.53    2.79
 -16  -2 -11    3.23    3.88
 -16  -2 -11   -0.01    0.63
 -16   2 -11    1.08    3.15
  16   2  11    2.20    3.32
 -18  -2 -11    4.65    3.72
 -18   2 -11    5.27    4.02
  18   2  11    1.77    2.87
 -20  -2 -11   -2.80    2.03
  20   2  11    4.50    4.19
 -20   2 -11    1.07    3.68
 -22  -2 -11    2.67    3.52
 -22   2 -11    1.05    3.87
  22   2  11    6.87    4.50
  23  -3 -11    9.58    4.96
  23   3 -11    8.75    4.97
  23   3 -11   13.02    5.65
  21  -3 -11   31.68    6.98
  21   3 -11   18.44    5.64
  21   3 -11   24.37    6.51
 -19  -3  11  -54.28   97.04
 -19   3  11  -10.52   82.67
  19   3 -11  -29.94   62.01
  17  -3 -11  -11.35   53.48
  17  -3 -11   48.70    8.90
 -17  -3  11   -1.31   84.12
  17   3 -11   44.41    8.63
 -17   3  11   51.51   75.14
  17   3 -11   55.64    8.35
  17   3 -11   16.23   60.84
  15  -3 -11   70.71   10.44
 -15  -3  11 -100.21   71.67
  15  -3 -11   87.09   52.53
  15   3 -11   80.58    8.96
 -15   3  11   20.82   67.28
  15   3 -11   65.66    7.91
  15   3 -11  116.34   55.22
  13  -3 -11   52.51   38.65
  13  -3 -11  107.97   10.70
 -13  -3  11   99.43   74.18
  13   3 -11  116.47   49.74
 -13   3  11   34.14   56.26
  13   3 -11  107.77    9.41
  13   3 -11   95.98   10.00
 -11  -3  11  130.05   65.65
  11  -3 -11  150.43   46.91
  11  -3 -11  112.31   11.29
  11   3 -11  137.77   10.14
  11   3 -11  120.65   10.95
 -11   3  11    1.11   43.80
  11   3 -11   85.59   44.91
   9  -3 -11  124.73   50.08
   9  -3 -11  155.26   12.78
  -9  -3  11  105.77   66.37
   9   3 -11  134.58   11.56
  -9   3  11   -3.31   48.72
   9   3 -11  133.08    9.90
   9   3 -11   97.07   45.94
   7  -3 -11  206.85   54.02
   7  -3 -11  150.41   12.53
   7   3 -11  147.60   11.86
   7   3 -11  135.40    9.76
  -7   3  11  190.21   62.07
   7   3 -11  179.63   43.91
   7   3 -11  152.28   10.94
   5  -3 -11  180.95   13.65
   5  -3 -11  219.85   54.83
   5   3 -11  173.64   12.70
   5   3 -11  104.24   43.89
   5   3 -11  132.51   10.55
   5   3 -11  175.29   10.39
  -5   3  11  239.87   67.25
   3  -3 -11  213.65   53.63
  -3  -3  11  185.88   58.35
   3  -3 -11  222.91   15.87
  -3   3  11  245.72   65.39
   3   3 -11  215.26   45.15
   3   3 -11  214.91   14.51
   1  -3 -11  235.01   57.97
  -1  -3  11  358.12   67.89
   1  -3 -11  262.40   17.26
  -1   3  11  198.06   57.74
   1   3 -11  238.04   50.13
   1   3 -11  240.10   15.50
  -1  -3 -11  124.24   49.00
  -1  -3 -11  226.17   15.52
   1  -3  11  151.49   54.33
  -1   3 -11  272.89   49.86
  -1   3 -11  216.71   13.83
   1   3  11  156.96   62.63
   3  -3  11  183.17   51.66
  -3  -3 -11  233.20   15.18
  -3  -3 -11  137.95   46.68
  -3   3 -11  209.98   13.08
  -3   3 -11  117.03   37.38
  -5  -3 -11  223.27   14.83
  -5  -3 -11  187.55   51.62
   5  -3  11  134.30   49.09
  -5   3 -11  203.77   12.55
   5   3  11  164.58   60.03
  -5   3 -11  169.94   42.84
  -5   3 -11  218.80   16.21
  -7  -3 -11  132.54   47.91
   7  -3  11  134.01   44.31
  -7  -3 -11  199.35   13.67
  -7   3 -11  191.31   11.36
  -7   3 -11  204.79   15.85
   7   3  11  190.94   58.83
  -7   3 -11  200.77   46.49
  -9  -3 -11  145.66   11.16
  -9  -3 -11   83.30   45.10
   9   3  11  134.14   55.35
  -9   3 -11  149.87   13.55
 -11  -3 -11  130.09    9.95
 -11  -3 -11  137.78   50.62
  11   3  11  137.97   55.20
 -11   3 -11  119.32   12.29
 -13  -3 -11  117.41    9.25
  13   3  11  136.81   12.28
 -13   3 -11  129.13   13.00
 -15  -3 -11   83.22    9.67
 -15  -3 -11   91.25    7.08
 -15   3 -11   82.34   12.48
  15   3  11   92.14    9.99
 -17  -3 -11   43.96    7.90
  17   3  11   54.08   10.01
 -17   3 -11   55.71   10.37
 -19  -3 -11   45.66    8.80
  19   3  11   54.52    9.92
 -19   3 -11   67.96   11.98
 -21  -3 -11   29.09    6.87
 -21   3 -11   40.15    9.50
  21   3  11   36.40    8.19
 -23  -3 -11   16.63    5.35
  23   3  11   24.69    6.62
 -23   3 -11   16.91    5.55
  22  -4 -11    3.73    3.90
  22   4 -11   12.13    4.88
  22   4 -11    6.06    4.54
 -20  -4  11   64.55  114.45
  20  -4 -11   22.33    6.04
  20   4 -11    8.08    4.71
 -18  -4  11  198.95  103.21
  18   4 -11  100.80   65.55
 -18   4  11   14.56   85.19
  16  -4 -11   44.55   53.29
 -16  -4  11  -34.15   80.84
  16  -4 -11   13.41    5.50
  16   4 -11   12.77    4.73
  16   4 -11   14.95    4.94
 -16   4  11  -33.82   71.65
  16   4 -11  -40.87   53.91
  14  -4 -11    7.81    4.63
  14  -4 -11  -40.77   49.73
  14   4 -11   23.31   53.61
  14   4 -11   29.45    6.24
  14   4 -11   28.01    5.70
 -14   4  11    9.06   66.28
  12  -4 -11   30.05   47.87
  12  -4 -11   11.31    5.26
  12   4 -11  -60.07   43.69
 -12   4  11   17.91   61.40
  12   4 -11   20.37    4.69
  12   4 -11   19.06    5.40
  10  -4 -11   21.93    5.74
  10  -4 -11   -2.67   42.94
  10   4 -11    8.67   41.96
 -10   4  11   -2.84   58.32
  10   4 -11   16.49    4.93
  10   4 -11   19.83    4.29
  -8  -4  11  -48.37   51.31
   8  -4 -11   21.11    6.09
   8  -4 -11   41.54   44.05
  -8   4  11  -18.88   55.18
   8   4 -11   21.43    5.65
   8   4 -11   31.84   39.25
   8   4 -11   18.37    4.07
  -6  -4  11   16.36   36.90
   6  -4 -11  -32.98   38.95
   6  -4 -11   19.58    5.16
   6   4 -11   18.32    3.54
   6   4 -11   41.83   36.63
   6   4 -11   18.06    4.92
  -6   4  11  -49.30   48.62
   4  -4 -11    7.54    4.33
   4  -4 -11   22.34   41.32
  -4  -4  11  -78.63   41.11
   4   4 -11    8.11    3.62
   4   4 -11   54.58   35.37
  -4   4  11   53.97   41.85
   4   4 -11    4.69    1.77
   2  -4 -11   10.77    4.34
  -2  -4  11  -48.56   38.82
   2  -4 -11   18.09   33.72
  -2   4  11    5.50   38.11
   2   4 -11    8.05    3.70
   2   4 -11   41.26   33.97
   0  -4 -11  117.95   46.41
   0  -4  11   21.82   41.90
   0  -4 -11   26.72    6.49
   0   4  11   -1.23   45.63
   0   4 -11   30.47    5.63
   0   4 -11   55.38   33.01
   2  -4  11   -7.32   38.78
  -2  -4 -11   63.24   34.34
  -2   4 -11   35.96   31.62
   4  -4  11   61.71   47.49
  -4  -4 -11    4.14    3.19
  -4  -4 -11   -3.53   40.24
   4   4  11  -15.98   43.01
  -4   4 -11    5.42   31.87
  -4   4 -11    7.68    3.84
  -4   4 -11    7.81    2.77
   6  -4  11  -76.65   43.49
  -6  -4 -11    9.30   30.92
  -6  -4 -11   19.21    4.87
   6   4  11   31.23   43.34
  -6   4 -11   18.10    3.74
  -6   4 -11   20.86    5.95
  -6   4 -11  -17.48   31.04
  -8  -4 -11    4.25    3.32
  -8  -4 -11   26.08   45.07
  -8   4 -11   10.61    4.38
   8   4  11  -27.54   47.15
 -10  -4 -11   69.25   48.17
  10   4  11   44.40   51.42
 -12  -4 -11   11.36    3.64
  12   4  11   16.61    5.63
 -12   4 -11   24.05    6.52
 -14  -4 -11    2.18    2.61
 -14   4 -11   11.03    5.15
  14   4  11    7.81    3.75
 -16  -4 -11    0.87    1.97
 -16  -4 -11    4.03    3.58
  16   4  11    6.37    4.76
 -16   4 -11    2.14    3.61
 -18  -4 -11    4.99    3.99
  18   4  11    3.66    3.97
 -18   4 -11   10.08    5.11
 -20  -4 -11   10.84    4.36
 -20   4 -11    7.51    5.06
  20   4  11   -1.26    3.31
 -22  -4 -11    2.84    2.05
 -22   4 -11    7.40    5.02
  22   4  11    3.52    4.84
  21  -5 -11   19.34    5.79
  21   5 -11    6.72    4.88
  21   5 -11   11.46    5.58
  19  -5 -11   45.89    8.67
  19   5 -11   24.05    6.99
  19   5 -11   96.19   79.35
  19   5 -11   25.41    6.69
  17  -5 -11   41.43    8.27
 -17  -5  11  -17.53  105.18
 -17   5  11   46.14  106.65
  17   5 -11   27.61    6.80
  17   5 -11   78.06   68.18
  17   5 -11   33.12    6.71
  15  -5 -11   42.56    8.67
 -15  -5  11   92.09   83.93
  15  -5 -11  -41.74   56.94
  15   5 -11   43.58    8.24
  15   5 -11   28.15   57.05
 -15   5  11   24.71   80.98
  15   5 -11   52.25    8.33
 -13  -5  11  -23.11   71.80
  13  -5 -11   63.61   10.27
  13  -5 -11   78.76   55.17
  13   5 -11   61.24    9.64
  13   5 -11   17.01   55.32
  13   5 -11   49.89    7.85
 -13   5  11    5.02   68.54
 -11  -5  11   93.65   69.58
  11  -5 -11   26.52   53.43
  11  -5 -11   92.65   10.12
  11   5 -11   80.63    7.89
  11   5 -11  113.35   53.30
  11   5 -11   93.16    9.87
 -11   5  11  -43.60   60.23
  -9  -5  11  110.66   66.00
   9  -5 -11  114.68   11.05
   9  -5 -11   70.72   49.65
  -9   5  11    4.86   44.81
   9   5 -11   94.59    9.85
   9   5 -11  128.67   52.94
   9   5 -11   82.83    7.46
   7  -5 -11   97.71   51.60
  -7  -5  11   19.73   54.64
   7   5 -11  100.33   46.41
  -7   5  11   -5.33   57.34
   5  -5 -11  136.31   12.65
  -5  -5  11  128.48   56.12
   5  -5 -11  139.29   56.88
   5   5 -11   82.43   41.64
  -5   5  11    5.02   55.21
   5   5 -11  142.09   11.47
   3  -5 -11  147.10   13.26
   3  -5 -11  148.44   57.33
  -3  -5  11  276.85   69.00
   3   5 -11  155.90   12.08
   3   5 -11  165.87   13.67
  -3   5  11  189.98   70.99
   3   5 -11  155.80   47.88
   1  -5 -11  148.09   49.68
   1  -5 -11  167.90   13.91
  -1  -5  11  131.54   52.77
  -1   5  11  111.69   59.98
   1   5 -11  160.65   43.50
   1   5 -11  159.15   11.70
   1   5 -11  154.17   13.47
   1  -5  11  146.88   51.45
  -1  -5 -11  208.72   52.24
  -1  -5 -11  189.36   14.73
   1   5  11   77.59   58.23
  -1   5 -11  163.31   11.82
  -1   5 -11  187.57   46.21
  -3  -5 -11  181.29   62.13
  -3  -5 -11  183.38   14.51
   3  -5  11  169.22   52.11
  -3   5 -11  179.26   15.07
   3   5  11  220.89   76.15
  -3   5 -11  138.17   38.89
  -3   5 -11  183.86   12.00
  -5  -5 -11  133.79   12.10
  -5  -5 -11  192.17   64.99
  -5   5 -11  150.94    9.77
  -5   5 -11  136.88   13.06
   5   5  11  215.56   71.25
  -7  -5 -11  143.61   55.71
  -7  -5 -11  161.84   12.99
  -7   5 -11  154.93   14.10
   7   5  11  114.59   61.98
  -9  -5 -11  133.90   58.51
  -9  -5 -11  111.92   10.71
  -9   5 -11  113.01   12.07
   9   5  11   86.53   62.15
 -11  -5 -11  100.64    9.78
 -11   5 -11  116.39   12.39
  11   5  11  113.25   12.06
 -13  -5 -11  102.85    9.63
  13   5  11  112.26   12.01
 -13   5 -11  109.37   12.28
 -15  -5 -11   71.89    7.35
  15   5  11   67.29   11.70
 -15   5 -11   46.21    9.48
 -17  -5 -11   45.47    7.92
 -17  -5 -11   34.46    5.80
 -17   5 -11   42.22   10.06
  17   5  11   35.53    8.74
 -19  -5 -11   38.54    7.64
 -19   5 -11   39.05    8.57
  19   5  11   50.72   10.64
 -21   5 -11   32.19    8.49
  21   5  11   40.39    9.92
  20  -6 -11    4.95    4.58
  20   6 -11    8.67    5.02
  20   6 -11    5.56    4.59
  18  -6 -11    2.14    3.84
 -18  -6  11  -69.54  120.42
  18   6 -11    3.66    4.28
  18   6 -11    8.14    4.64
  18   6 -11   95.86   78.09
  16  -6 -11    2.52    3.96
 -16  -6  11  -49.62   94.86
  16   6 -11    6.38    4.40
  16   6 -11  -33.56   64.47
  16   6 -11    5.54    3.75
  14  -6 -11    5.79    4.56
  14  -6 -11  -20.30   63.26
 -14  -6  11  240.88   95.51
 -14   6  11   -6.42   78.06
  14   6 -11   17.53    5.51
  14   6 -11   10.40    3.91
  14   6 -11  -39.92   41.23
  12  -6 -11    9.58    5.01
  12  -6 -11   43.53   57.61
 -12  -6  11  -82.53   75.52
  12   6 -11  -21.39   52.99
 -12   6  11   65.39   77.56
  12   6 -11    3.46    3.13
  12   6 -11    6.25    4.14
  10  -6 -11   16.91    5.62
  10  -6 -11   25.53   58.35
 -10  -6  11   36.57   71.13
 -10   6  11   19.75   69.65
  10   6 -11    4.81    3.76
  10   6 -11    7.42    3.84
  10   6 -11   54.72   49.28
   8  -6 -11  -15.80   43.20
   8  -6 -11   18.18    5.81
  -8  -6  11  -75.84   58.77
  -8   6  11  -42.94   67.12
   8   6 -11   -0.26    0.68
   8   6 -11    8.81   43.70
   8   6 -11    7.59    4.16
   8   6 -11   11.61    4.53
   8   6 -11    0.06    0.97
  -6  -6  11    9.72   56.70
   6  -6 -11    9.25    4.35
   6  -6 -11   17.15   55.95
   6   6 -11   -0.04    0.71
   6   6 -11   -0.19    0.58
   6   6 -11    3.41   39.70
   6   6 -11    3.44    3.30
   6   6 -11    6.04    3.70
  -6   6  11  -48.87   62.34
   4  -6 -11   42.37   52.32
  -4  -6  11   62.50   52.77
   4   6 -11   20.79   37.06
  -4   6  11   58.51   62.06
   2  -6 -11  -75.99   48.48
  -2  -6  11  -23.09   46.37
   2  -6 -11   16.35    5.40
  -2   6  11   38.39   63.28
   2   6 -11   12.02    4.59
   2   6 -11   40.91   36.96
   2   6 -11   14.80    4.42
   0  -6 -11   69.48   54.39
   0  -6 -11   25.82    6.54
   0   6  11  -27.40   56.95
   0   6 -11    9.41    4.52
   0   6 -11   11.73    3.88
  -2  -6 -11   79.71   55.10
  -4  -6 -11  -12.26   54.59
  -4  -6 -11    6.75    4.21
  -4   6 -11    8.18    4.43
  -4   6 -11   16.30    3.78
   4   6  11   17.03   58.84
  -6  -6 -11    4.64    3.91
  -6  -6 -11   -3.96   54.54
   6   6  11   49.80   62.51
  -6   6 -11    6.57    4.20
  -8  -6 -11    1.54    3.04
  -8  -6 -11    4.02   55.26
  -8   6 -11    5.75    4.15
   8   6  11  -14.99   62.47
 -10  -6 -11    0.37    2.96
 -10   6 -11    4.14    4.06
 -12  -6 -11    3.20    3.34
  12   6  11    4.69    4.89
 -12   6 -11    2.57    4.24
 -14  -6 -11    7.80    3.92
  14   6  11    6.25    5.30
 -14   6 -11    6.55    4.77
 -16  -6 -11    1.51    2.93
 -16  -6 -11    3.94    3.21
  16   6  11    2.34    4.21
 -16   6 -11    0.35    3.82
 -18  -6 -11    4.62    3.30
 -18  -6 -11   -1.41    1.68
 -18   6 -11    2.21    3.75
  18   6  11    4.89    5.17
  19  -7 -11   28.74    7.63
  19   7 -11   23.73    6.24
  19   7 -11   23.78    5.06
  19   7 -11   16.84    6.13
  17  -7 -11   28.89    6.98
 -17  -7  11  -83.24  127.85
  17   7 -11   26.70    7.27
  17   7 -11   -7.55   83.95
  17   7 -11   -2.11    1.44
  15  -7 -11   40.52    8.68
 -15  -7  11  -71.29  107.46
  15   7 -11   29.72    7.39
  15   7 -11   34.96    6.81
  15   7 -11   42.44   74.66
 -13  -7  11  155.04  101.96
  13  -7 -11   63.16   10.45
  13   7 -11   14.27   63.03
  13   7 -11   46.51    8.33
  13   7 -11   30.49    7.24
  11  -7 -11    3.24   68.81
 -11  -7  11   15.64   81.14
  11   7 -11    0.09    1.19
  11   7 -11   93.04   59.48
 -11   7  11  -25.58   80.68
  -9  -7  11   36.86   92.37
   9  -7 -11  104.23   71.78
   9  -7 -11   66.73   10.82
   9   7 -11   78.84    8.98
  -9   7  11  -34.55   77.09
   9   7 -11   74.94   61.57
   9   7 -11   67.74   10.40
   7  -7 -11    9.54   66.16
  -7   7  11  -66.36   68.33
   5  -7 -11   93.51   13.50
   5  -7 -11   72.51   63.94
   5   7 -11   93.71   10.33
  -5   7  11  -74.90   65.75
   5   7 -11   99.68    9.99
   3  -7 -11  120.88   12.48
   3  -7 -11   96.53   62.05
  -3   7  11   34.08   70.08
   3   7 -11  113.61   11.43
   3   7 -11  112.50   10.25
   1  -7 -11   24.08   65.94
  -1   7  11 -100.63   65.82
  -1  -7 -11  114.22   12.03
  -1  -7 -11  159.93   70.59
  -1   7 -11  111.12   11.78
  -1   7 -11  123.75   10.06
  -3  -7 -11  120.33   12.16
  -3  -7 -11  110.77   70.18
  -3   7 -11  125.69   12.52
   3   7  11  138.01   78.34
  -5  -7 -11  106.79   11.37
  -5  -7 -11  176.29   67.82
  -5   7 -11  113.55   12.24
   5   7  11  181.64   84.02
  -7  -7 -11  -14.15   65.60
  -7  -7 -11   73.06   10.86
  -7   7 -11   94.71   11.03
   7   7  11   44.61   63.71
  -9  -7 -11   62.99    9.75
  -9   7 -11   76.93   12.23
 -11  -7 -11   55.60    9.05
 -11   7 -11   73.40   12.04
  11   7  11   86.47   13.61
 -13  -7 -11   60.33    9.52
 -13   7 -11   76.01   12.74
  13   7  11   65.26   11.91
 -15  -7 -11   43.25    7.76
  15   7  11   46.93   10.09
 -15   7 -11   27.41    7.35
 -17  -7 -11   23.69    5.80
  17   7  11   29.53    7.61
 -17   7 -11   30.51    7.81
  16  -8 -11    5.06    4.20
  16   8 -11    0.16    1.65
  16   8 -11   10.37    3.94
  16   8 -11    1.95    4.30
  14  -8 -11    9.80    5.84
  14   8 -11    0.28    1.62
  14   8 -11   11.28    4.23
  14   8 -11    2.35    3.86
  12  -8 -11   19.35    6.43
  12   8 -11    2.25    3.15
  12   8 -11   -0.41    1.18
  12   8 -11    6.06    4.60
  10  -8 -11    7.72    5.07
  10   8 -11   12.65    5.17
  10   8 -11   22.50    6.06
   8  -8 -11  -77.49  108.50
   8  -8 -11    5.40    4.55
   8   8 -11    8.92    4.80
   8   8 -11   19.06    5.65
  -8   8  11   -9.76   83.07
   6  -8 -11    6.46    4.56
   6  -8 -11   21.66   69.47
  -6   8  11   92.78   84.89
   6   8 -11   13.15    4.50
   6   8 -11   14.21    4.99
   4  -8 -11  -20.45   69.36
   4  -8 -11    5.37    4.79
   4   8 -11    7.69    4.48
  -4   8  11   32.40   83.33
   4   8 -11   11.13    4.27
   2  -8 -11   -2.49   73.10
   2  -8 -11    1.05    3.53
   2   8 -11    6.58    3.29
   2   8 -11    4.88    3.62
  -2   8  11  -35.73   80.84
   0  -8 -11   96.91   78.76
  -2  -8 -11   41.83   73.24
  -2  -8 -11    2.92    4.36
  -2   8 -11   11.47    4.74
   2   8  11   58.45   82.21
  -4  -8 -11    3.33    4.17
  -4  -8 -11  -46.04   70.25
  -4   8 -11    3.94    3.89
   4   8  11   12.86   81.22
  -6  -8 -11    5.30    4.45
  -6  -8 -11   13.88   73.81
  -6   8 -11   -1.90    2.61
   6   8  11  -80.09   86.91
  -8  -8 -11    3.09    4.01
  -8   8 -11    6.04    4.70
 -10  -8 -11   -0.46    2.91
 -10   8 -11    1.09    3.63
 -12  -8 -11    6.11    4.56
  12   8  11    5.31    5.04
 -12   8 -11    5.17    4.77
 -14  -8 -11    6.94    4.45
 -14   8 -11    4.95    4.55
  14   8  11    2.22    4.94
  13  -9 -11   33.85    8.74
  13   9 -11   36.42    8.88
  13   9 -11   27.08    5.72
  11  -9 -11   32.78    8.15
  11   9 -11   27.46    7.70
  11   9 -11   36.98    6.92
   9  -9 -11   46.06    9.64
   9   9 -11   61.00    9.41
   9   9 -11   50.08    9.49
   7  -9 -11   60.34   10.94
   7   9 -11   76.56    9.15
   7   9 -11   68.50   10.53
   5  -9 -11   61.98   11.26
   5   9 -11   49.46    8.88
   5   9 -11   63.99    9.61
   3  -9 -11   81.84   13.01
   3   9 -11   81.60   11.15
   3   9 -11   78.41   11.74
  -3   9  11  -10.47   99.46
   1  -9 -11   63.00   10.76
   1  -9 -11  103.43   89.76
   1   9 -11   58.16    9.43
   1   9 -11   74.69    9.99
  -1  -9 -11   71.00   11.94
  -1  -9 -11  147.77   94.01
  -1   9 -11   64.03   10.50
   1   9  11  274.61  106.07
  -3  -9 -11  144.01   93.19
  -3  -9 -11   73.32   12.02
   3   9  11 -104.47   75.05
  -3   9 -11   83.62   12.02
  -5  -9 -11  -12.54   93.08
   5   9  11   -2.90  103.41
  -7  -9 -11   54.87    9.91
  -7   9 -11   59.18   10.74
  -9  -9 -11   39.96    8.53
  -9   9 -11   49.92   10.54
 -11  -9 -11   48.82    9.80
 -11   9 -11   36.43    9.04
   8 -10 -11   -0.96    3.40
   8  10 -11    1.50    2.83
   8  10 -11    1.75    4.30
   6 -10 -11    5.30    4.66
   6  10 -11   -2.84    2.72
   6  10 -11   -0.04    2.66
   4 -10 -11    0.92    4.03
   4  10 -11    4.07    3.65
   4  10 -11   -0.01    2.99
   2 -10 -11    3.09    4.65
   2  10 -11    0.83    3.17
   0 -10 -11   -0.29    3.38
   0  10 -11   -2.20    2.57
  -2 -10 -11   -2.30    2.87
  -2  10 -11   -0.92    3.25
  -4 -10 -11    4.21    4.72
  -4  10 -11    3.70    4.47
  -6 -10 -11    4.82    4.66
  -6  10 -11   -0.35    2.93
  22   0 -12    9.24    5.00
  22   0 -12   17.23    5.40
  20   0 -12   20.15    6.12
  18   0 -12   30.46    6.94
 -18   0  12 -185.27   97.59
  18   0 -12   57.02   85.69
  16   0 -12   42.59    7.86
  16   0 -12   74.11   61.24
 -16   0  12   77.78   93.70
 -14   0  12  -53.32   75.77
  14   0 -12   14.81   53.94
 -12   0  12  -95.92   72.95
  12   0 -12   91.72   53.60
  10   0 -12   11.19   49.65
 -10   0  12   50.63   71.90
   8   0 -12  125.13   11.09
   8   0 -12   93.35   48.76
  -8   0  12   95.25   68.12
   6   0 -12  105.33   48.24
   6   0 -12  147.36   12.39
   4   0 -12  187.74   13.91
   4   0 -12  203.58   53.89
  -4   0  12   57.60   76.60
  -2   0  12  154.64   61.39
   2   0 -12  146.51   45.38
   2   0 -12  194.53   13.88
   0   0  12  127.86   57.07
   0   0 -12  162.63   12.27
   0   0 -12  131.21   39.52
   2   0  12  155.72   58.13
  -2   0 -12  123.37   11.53
  -2   0 -12  103.31   43.00
  -2   0 -12  148.45   11.14
  -4   0 -12   87.55   42.03
   4   0  12  154.13   57.27
   6   0  12  147.81   54.38
  -6   0 -12  183.95   48.55
  -6   0 -12  149.01   10.84
 -10   0 -12   61.88   10.29
 -10   0 -12   92.43    6.89
 -14   0 -12   56.89   10.43
 -16   0 -12   57.66   10.52
 -18   0 -12   38.81    8.25
 -20   0 -12   41.49    8.72
  21  -1 -12    8.91    5.00
  21   1 -12    5.48    4.07
  21   1 -12    1.15    3.37
  19  -1 -12    9.88    4.86
  19   1 -12    8.98    4.75
  19   1 -12   13.93    4.66
 -17  -1  12  109.28  103.11
  17  -1 -12    4.60    4.05
  17  -1 -12   45.67   61.47
 -17   1  12   28.37   97.50
  17   1 -12   13.58   46.31
  17   1 -12   12.78    4.43
  17   1 -12    6.12    4.19
 -15  -1  12   91.50   86.38
  15  -1 -12    6.16   56.73
  15  -1 -12    9.84    4.50
  15   1 -12    6.11    4.28
  15   1 -12   -3.52   56.98
 -15   1  12  -34.24   83.69
  13  -1 -12   -0.74   51.75
  13  -1 -12   28.09    6.83
 -13  -1  12   65.98   81.06
  13   1 -12   14.24    4.83
 -13   1  12  -73.98   80.97
  13   1 -12    6.48   39.43
  11  -1 -12   33.45   47.92
 -11  -1  12  -61.97   68.51
  11  -1 -12   27.05    6.61
  11   1 -12   45.45   49.90
  11   1 -12   19.62    5.41
 -11   1  12 -120.64   71.10
   9  -1 -12   13.67   47.27
  -9   1  12   15.36   69.05
   9   1 -12   17.08    4.82
   9   1 -12   45.97   46.45
   7  -1 -12   12.71    4.51
   7  -1 -12   45.55   42.09
  -7   1  12   27.00   61.85
   7   1 -12    9.92    3.94
   7   1 -12    2.07   43.42
  -5  -1  12   -5.05   54.72
   5  -1 -12  -13.98   31.10
   5   1 -12   21.64    5.48
   5   1 -12    6.86   39.21
   3  -1 -12   87.03   44.08
   3  -1 -12   32.41    6.46
  -3  -1  12    5.42   54.72
   3   1 -12   26.21    5.68
   3   1 -12   18.65    5.91
   3   1 -12   46.33   34.28
  -1  -1  12   62.29   54.16
   1  -1 -12   10.45    4.21
   1  -1 -12   29.00   39.14
   1   1 -12    5.30    3.19
   1   1 -12    3.77   34.94
  -1   1  12  -43.36   48.22
   1   1 -12    0.71    2.12
  -1  -1 -12   11.52    3.94
   1  -1  12   11.21   45.43
  -1  -1 -12  -27.49   36.91
   1   1  12   47.16   47.99
  -1   1 -12    6.69    3.42
  -1   1 -12   -4.86   31.39
  -3  -1 -12    8.19    3.66
   3  -1  12    3.09   44.76
  -3  -1 -12  -34.96   35.27
   3   1  12   -6.27   46.90
  -3   1 -12    0.98    1.54
  -3   1 -12    8.59    3.10
  -3   1 -12   17.51   33.30
   5  -1  12  -24.74   47.05
  -5  -1 -12  -14.37   35.21
  -5  -1 -12    5.53    3.35
  -5   1 -12   10.90    3.45
   5   1  12   -8.80   47.62
  -5   1 -12   -0.17    1.06
  -5   1 -12   20.54   33.58
  -7  -1 -12    6.15    3.33
  -7  -1 -12   33.24   41.29
   7   1  12   -3.27   47.70
  -7   1 -12   10.84    3.31
  -9  -1 -12    5.05    2.75
  -9   1 -12    8.91    4.24
  -9   1 -12    0.31    1.03
  -9   1 -12    3.26    2.32
 -11  -1 -12    0.77    1.88
 -11   1 -12    0.04    0.73
 -11   1 -12   -3.01    2.06
 -11   1 -12    0.35    1.34
 -13  -1 -12   -0.43    0.61
 -13  -1 -12    1.66    3.07
 -13   1 -12    2.54    3.70
 -15  -1 -12    3.91    3.92
 -15   1 -12    2.17    3.33
 -17  -1 -12    1.16    3.31
 -17   1 -12    1.94    3.76
 -19  -1 -12    5.54    4.23
 -19   1 -12    1.16    3.21
  19   1  12    0.06    2.99
 -21  -1 -12    0.03    2.78
  21   1  12    2.66    3.37
 -21   1 -12    0.33    3.13
  22  -2 -12   14.58    5.24
  22   2 -12   17.59    5.70
  22   2 -12   15.20    5.94
  20  -2 -12   25.32    6.67
  20   2 -12   29.95    7.10
  20   2 -12   24.49    6.43
 -18  -2  12  -68.81  101.15
  18  -2 -12   32.53    7.63
  18   2 -12   24.79    6.07
  18   2 -12   32.56    7.57
  18   2 -12  -25.88   70.14
 -16  -2  12   90.36   99.77
  16  -2 -12   38.91    7.89
  16  -2 -12   30.53   64.35
 -16   2  12   56.73   88.26
  16   2 -12   45.62    8.23
  16   2 -12   51.68    8.22
  16   2 -12   77.56   65.20
 -14  -2  12  -45.86   99.80
  14  -2 -12   70.45   10.32
  14  -2 -12   63.66   62.73
  14   2 -12   66.12   10.17
 -14   2  12   33.07   77.77
  14   2 -12   -7.42   57.99
  14   2 -12   65.27    7.68
  12  -2 -12   83.50   11.48
  12  -2 -12   87.30   57.16
  12   2 -12   84.89    8.38
  12   2 -12   88.21    9.67
  12   2 -12   95.86   47.05
 -12   2  12  -96.64   66.67
  10  -2 -12   65.02   41.43
  10   2 -12    6.06   45.57
 -10   2  12 -110.49   62.33
  -8  -2  12  103.69   67.29
   8  -2 -12   79.59   50.16
   8  -2 -12  123.10   11.26
   8   2 -12  105.90   10.45
   8   2 -12  121.87   44.47
  -8   2  12  109.56   69.06
   6  -2 -12   83.18   50.13
   6  -2 -12  163.74   13.18
  -6  -2  12   99.54   70.04
  -6   2  12  139.30   69.61
   6   2 -12  132.14   50.05
   6   2 -12  153.41   12.45
  -4  -2  12  148.99   62.26
   4  -2 -12  152.26   12.70
   4  -2 -12   99.90   48.41
   4   2 -12  159.67   50.61
   4   2 -12  158.82   12.40
   2  -2 -12  183.87   13.62
   2  -2 -12   47.56   46.02
  -2  -2  12  185.60   64.91
   2   2 -12  227.50   54.43
   2   2 -12  148.43   12.11
   0  -2  12  124.94   56.05
   0  -2 -12  156.00   12.52
   0  -2 -12   80.48   48.34
   0   2 -12  167.43   11.92
   0   2 -12  213.06   50.53
   0   2  12   12.88   54.22
   2  -2  12  212.32   60.67
  -2  -2 -12   19.94   42.72
  -2   2 -12   90.71   44.71
   2   2  12  157.87   63.85
  -4  -2 -12  190.19   13.60
   4  -2  12   81.18   50.34
  -4  -2 -12  187.43   56.52
  -4   2 -12  142.70   46.57
  -4   2 -12  182.29   12.23
   4   2  12  245.64   66.52
  -6  -2 -12  158.19   54.05
  -6  -2 -12  172.15   12.46
   6   2  12  105.52   57.31
  -6   2 -12  162.88   14.37
  -6   2 -12  164.95   11.01
  -8  -2 -12  136.75   10.85
  -8   2 -12  137.91   13.35
  -8   2 -12  153.85    9.57
 -12  -2 -12   84.62    7.27
 -12   2 -12   89.56   13.16
 -14  -2 -12   64.38   10.69
 -14   2 -12   80.31   12.84
 -16  -2 -12   51.02    8.89
 -16   2 -12   65.09   11.41
 -18   2 -12   40.19    8.82
  18   2  12   59.67    9.70
 -20  -2 -12   34.87    7.79
 -20   2 -12   26.14    7.58
  20   2  12   35.03    7.75
  21  -3 -12    1.59    3.78
  21   3 -12    1.04    3.52
  21   3 -12    2.18    3.71
  19  -3 -12   15.61    5.37
  19   3 -12    5.54    4.35
  19   3 -12   14.83    4.72
  17  -3 -12   12.38    5.53
  17   3 -12   15.70    5.29
  17   3 -12   14.87    4.83
  17   3 -12  -25.67   71.87
  15  -3 -12  -21.21   62.37
 -15   3  12   97.44   92.30
  15   3 -12  110.10   67.42
  13  -3 -12   22.68    6.23
 -13  -3  12  102.22   88.99
  13  -3 -12  -10.96   55.62
  13   3 -12   14.68    5.14
  13   3 -12   30.97   56.28
 -13   3  12   24.05   61.80
  13   3 -12   29.87    5.81
  11  -3 -12    7.05   40.39
 -11  -3  12   59.54   81.01
  11  -3 -12    9.51    4.70
  11   3 -12   27.46    5.37
  11   3 -12   20.78   50.25
  11   3 -12   29.23    6.57
 -11   3  12 -124.27   68.37
  -9  -3  12  -49.51   66.68
   9  -3 -12   18.43    5.23
   9  -3 -12   72.58   53.51
   9   3 -12   14.47    3.86
   9   3 -12   21.27    5.56
   9   3 -12  -59.28   44.10
  -9   3  12   43.93   69.21
   7  -3 -12    4.78    3.82
   7  -3 -12   18.81   34.10
  -7  -3  12   36.69   64.66
   7   3 -12    6.11    3.60
  -7   3  12  -39.62   64.10
   7   3 -12    9.18    2.83
   7   3 -12   39.84   45.12
   5  -3 -12   66.67   49.72
   5  -3 -12   15.10    5.22
  -5  -3  12   21.54   43.05
   5   3 -12   47.33   41.76
   5   3 -12    9.93    2.83
  -5   3  12   99.43   61.99
   5   3 -12   19.61    4.79
   3  -3 -12    7.19    3.99
  -3  -3  12    0.79   52.85
   3  -3 -12   49.58   47.68
   3   3 -12   11.03    4.04
   3   3 -12   56.71   42.50
   1  -3 -12    4.01    3.23
   1  -3 -12    2.58   43.44
  -1  -3  12  -55.50   50.12
   1   3 -12    0.09    0.49
   1   3 -12    2.84    2.91
   1   3 -12    0.73    1.20
   1   3 -12  -11.81   35.73
  -1   3  12  -17.32   54.83
   1  -3  12    4.25   48.79
  -1  -3 -12    8.19    3.46
  -1  -3 -12   53.60   43.98
  -1   3 -12    8.71    3.54
  -1   3 -12    5.93   35.09
   1   3  12   26.30   55.02
  -3  -3 -12   10.42    3.72
  -3  -3 -12  -42.33   43.05
  -3   3 -12   10.50    4.59
   3   3  12   55.64   46.28
  -3   3 -12   16.36   34.47
  -3   3 -12    9.12    3.20
  -5  -3 -12   41.05   37.50
  -5  -3 -12   -1.32    2.63
   5   3  12   -0.55   53.81
  -5   3 -12    5.04    2.76
  -5   3 -12   10.72    4.72
  -7  -3 -12   32.67   47.68
  -7  -3 -12   18.01    4.74
  -7   3 -12   18.38    5.78
  -7   3 -12   17.13    3.44
   7   3  12   54.95   58.10
  -9  -3 -12    4.60    3.22
  -9   3 -12    8.00    4.93
 -11  -3 -12    5.33    3.18
 -11   3 -12    6.63    4.45
 -13  -3 -12    2.74    2.56
 -13   3 -12    2.08    3.88
 -15  -3 -12   -0.49    0.83
 -15  -3 -12    1.39    3.12
 -15   3 -12    5.48    4.17
 -17  -3 -12    0.39    0.92
 -17  -3 -12    0.63    3.00
 -17   3 -12   -0.17    3.19
  17   3  12    6.15    4.85
 -19  -3 -12    6.72    4.31
 -19   3 -12    7.63    4.21
  19   3  12    6.00    4.54
  20  -4 -12   22.74    6.45
  20   4 -12   13.32    5.21
  20   4 -12   15.67    5.54
  18  -4 -12   43.13    8.36
 -18  -4  12   93.25  155.47
  18   4 -12   29.65    7.22
  18   4 -12   24.50    6.51
 -16  -4  12   -6.54   81.05
  16  -4 -12   29.90    7.14
  16   4 -12  118.24   71.32
  16   4 -12   30.20    6.35
  16   4 -12   33.89    7.04
  14  -4 -12   41.58    8.49
  14  -4 -12  111.45   69.14
 -14  -4  12   73.16   95.14
  14   4 -12   47.17    7.95
  14   4 -12   52.44   67.48
 -14   4  12  -36.88   88.37
  14   4 -12   36.13    7.25
  12  -4 -12   79.80   11.83
 -12  -4  12   16.87   86.71
  12  -4 -12  142.52   66.54
  12   4 -12    2.94   60.78
  12   4 -12   61.08    7.00
  12   4 -12   67.57   10.24
 -12   4  12  -73.64   76.75
 -10  -4  12   77.39   81.64
  10  -4 -12   59.61   56.34
  10  -4 -12   66.61   10.74
  10   4 -12   54.88    6.06
 -10   4  12  -49.48   72.87
  10   4 -12   84.12   11.14
  10   4 -12  171.01   61.20
   8  -4 -12   40.28   41.69
   8  -4 -12   69.71   10.51
  -8  -4  12   34.72   69.87
   8   4 -12  -17.13   45.08
  -8   4  12  -43.19   53.99
   6  -4 -12   95.77   12.83
   6  -4 -12  148.38   59.26
  -6  -4  12   91.74   67.64
  -6   4  12   30.91   68.33
   6   4 -12  101.47    9.78
   6   4 -12  179.71   55.23
   4  -4 -12   83.60   53.75
   4  -4 -12  108.52   11.26
  -4  -4  12   57.57   63.26
   4   4 -12  109.94   10.07
   4   4 -12  134.85   48.93
  -4   4  12  140.57   78.82
   2  -4 -12   90.75   55.22
   2  -4 -12  123.88   11.38
  -2  -4  12  106.79   59.82
   2   4 -12  102.64    9.59
   2   4 -12  175.32   54.38
   0  -4  12   13.19   64.85
   0  -4 -12  114.47   10.71
   0  -4 -12   77.11   54.64
   0   4 -12   73.03   44.16
   0   4  12  161.45   69.53
   0   4 -12  110.38   11.32
   0   4 -12   94.24    8.85
  -2  -4 -12  119.32   11.30
  -2  -4 -12  190.13   62.84
   2   4  12  141.06   71.31
  -2   4 -12  130.84    9.80
  -2   4 -12  119.45   12.34
  -4  -4 -12  145.33   60.38
  -4  -4 -12  126.81   11.66
  -4   4 -12  138.33    9.92
  -4   4 -12  156.82   13.89
   4   4  12  128.50   72.74
  -6  -4 -12   91.78    9.54
  -6  -4 -12  101.69   46.36
   6   4  12   70.96   64.94
  -6   4 -12  100.21   13.95
  -8  -4 -12   99.49    9.45
  -8   4 -12   93.78   13.87
 -10  -4 -12   94.17    9.12
 -10   4 -12   99.62   14.31
 -12  -4 -12   71.27    7.55
 -12   4 -12   75.88   12.72
 -14  -4 -12   43.82    6.42
 -14   4 -12   46.56    9.38
 -16  -4 -12   39.59    7.53
  16   4  12   44.10    8.83
 -16   4 -12   52.02   10.66
 -18  -4 -12   37.24    7.91
  18   4  12   38.23    8.59
 -18   4 -12   28.06    7.64
  19  -5 -12    2.20    4.14
  19   5 -12    2.26    3.95
  19   5 -12    4.68    4.01
 -17  -5  12  111.42  136.68
 -15  -5  12   29.54  112.00
  15  -5 -12   13.26    5.01
  15   5 -12    1.55    2.55
  15   5 -12  -58.26   69.66
  15   5 -12    2.75    3.61
 -13  -5  12  -17.02   95.46
 -13   5  12   89.99   94.76
  13   5 -12   33.15   64.69
  11  -5 -12   14.04    5.40
 -11  -5  12 -102.74   83.54
  11  -5 -12   88.87   66.06
  11   5 -12   -0.22    0.92
  11   5 -12   11.56    4.56
 -11   5  12   47.35   64.30
  11   5 -12  -20.72   43.86
   9  -5 -12   13.27    4.98
   9  -5 -12   28.99   59.91
  -9  -5  12   48.53   80.92
   9   5 -12    0.19    0.94
   9   5 -12   -9.79   53.93
   9   5 -12    3.22    3.54
  -9   5  12  -72.12   59.67
  -7  -5  12   92.11   74.98
   7  -5 -12   22.88   44.65
   7  -5 -12    6.19    3.96
   7   5 -12   22.65   49.78
   7   5 -12   10.16    4.14
  -7   5  12  -41.19   73.75
   5  -5 -12   13.03    5.13
   5  -5 -12   -3.32   57.38
  -5  -5  12   41.47   74.49
   5   5 -12    8.25    4.10
  -5   5  12  -18.17   71.06
   5   5 -12   47.78   50.50
   5   5 -12   14.22    4.30
   3  -5 -12    8.79    4.79
   3  -5 -12  -39.17   57.07
   3   5 -12    5.51    3.89
   3   5 -12    5.22    3.43
   1  -5 -12    8.44   55.98
   1  -5 -12    4.21    3.21
   1   5 -12    2.37    3.10
  -1   5  12  -58.84   67.62
   1   5 -12    2.09    2.79
  -1  -5 -12  -19.94   56.83
  -1  -5 -12    3.58    3.50
  -1   5 -12    8.35    4.23
   1   5  12   13.01   69.48
  -1   5 -12   11.81    3.77
  -3  -5 -12   40.12   60.62
   3   5  12   61.08   55.78
  -5  -5 -12    0.44    2.90
  -5  -5 -12  -37.00   57.88
   5   5  12  -54.85   68.79
  -5   5 -12    1.01    3.36
  -5   5 -12    0.36    1.32
  -7  -5 -12    2.57    3.31
  -7   5 -12    0.00    0.82
  -7   5 -12    5.77    4.24
  -9  -5 -12    0.86    2.75
  -9   5 -12   -1.23    2.96
 -11  -5 -12    4.89    3.44
 -11   5 -12    4.49    4.50
 -13  -5 -12    1.06    2.71
 -13   5 -12   -0.89    3.24
 -15  -5 -12    1.55    2.67
  15   5  12    2.24    4.05
 -15   5 -12    3.59    4.31
 -17  -5 -12    1.27    3.07
 -17  -5 -12   -0.30    1.13
 -17   5 -12   -0.61    3.35
  17   5  12    5.26    5.11
  16  -6 -12   26.23    6.49
  16   6 -12   17.77    6.00
  16   6 -12   21.91    5.71
  14  -6 -12   20.56    6.14
  14   6 -12   25.28    6.71
  14   6 -12   24.67    6.61
  12  -6 -12   39.31    8.09
  12   6 -12   43.89    8.10
  12   6 -12   38.25    8.01
  10  -6 -12  -26.72   70.56
 -10   6  12   -2.62   89.49
  10   6 -12    0.05    1.06
   8  -6 -12  -37.49   69.64
   8   6 -12   -0.27    0.81
  -8   6  12 -160.99   85.17
   6  -6 -12   26.50   70.37
   6  -6 -12   78.44   12.25
  -6   6  12   19.26   83.97
   6   6 -12   72.00   11.08
   4  -6 -12   79.30   11.96
   4  -6 -12  102.33   70.68
   4   6 -12   90.47   10.36
  -4   6  12   25.45   67.20
   4   6 -12   95.04    9.17
   2  -6 -12   87.49   12.78
   2  -6 -12  119.70   57.89
   2   6 -12   98.55    9.24
   2   6 -12   71.30   10.80
   0  -6 -12  142.51   68.86
   0  -6 -12   71.86   11.24
   0   6 -12  107.77    9.28
   0   6  12  -29.74   77.46
   0   6 -12  108.69   11.54
  -2  -6 -12  104.08   11.04
  -2  -6 -12  191.37   75.39
  -2   6 -12  102.18    8.72
  -2   6 -12   97.67   11.40
   2   6  12  -91.77   73.42
  -4  -6 -12    3.07   69.04
  -4   6 -12    0.81    1.61
   4   6  12  -50.40   80.01
  -6  -6 -12   61.26    9.48
  -6   6 -12   59.11   10.20
  -8  -6 -12   59.69    9.49
  -8   6 -12   52.15    9.81
 -10  -6 -12   67.08    9.68
 -10   6 -12   62.44   11.63
 -12  -6 -12   48.50    7.73
 -12   6 -12   37.31    8.18
 -14  -6 -12   37.12    6.51
 -14   6 -12   39.82    8.77
  14   6  12   24.91    7.01
 -16  -6 -12   27.90    5.71
 -16  -6 -12   27.14    6.48
  16   6  12   43.03    9.43
 -16   6 -12   33.76    8.82
  15  -7 -12    4.45    4.05
  15   7 -12    3.69    3.33
  15   7 -12   10.71    4.83
  15   7 -12   -0.23    1.50
  13  -7 -12    9.16    5.17
  13   7 -12   10.95    4.27
  13   7 -12    3.45    4.18
  13   7 -12   -0.11    1.43
  11  -7 -12    4.34    4.39
  11   7 -12   -0.06    1.23
  11   7 -12    2.20    4.05
  11   7 -12   13.17    4.74
   9  -7 -12    5.36    4.44
   9   7 -12    6.27    4.75
   9   7 -12    5.54    4.11
   7  -7 -12   16.24    5.73
   7  -7 -12   32.02   89.32
  -7   7  12  127.03   98.59
   7   7 -12    4.19    3.69
   7   7 -12    5.32    4.02
   5  -7 -12  -19.58   77.77
   5  -7 -12    2.68    3.79
   5   7 -12   10.41    4.72
   5   7 -12    2.91    3.60
  -5   7  12  127.54   95.22
   3  -7 -12  -45.76   59.48
   3  -7 -12    5.98    4.57
   3   7 -12    2.67    3.37
   3   7 -12    7.29    3.82
   1  -7 -12  -10.55   56.61
   1  -7 -12    1.83    3.67
   1   7 -12    3.36    3.61
  -1   7  12   42.61   90.88
   1   7 -12    2.38    2.98
  -1  -7 -12    2.51    3.45
  -1  -7 -12  -53.37   75.66
  -1   7 -12    3.87    3.00
  -1   7 -12    4.86    4.09
   1   7  12  -67.61   87.85
  -3  -7 -12   17.71   78.30
   3   7  12   87.82   95.25
  -5  -7 -12    3.10    3.73
  -5   7 -12    0.94    3.23
  -7  -7 -12    5.09    4.09
  -7   7 -12    3.04    4.04
  -9  -7 -12    1.67    3.43
  -9   7 -12   15.74    5.40
 -11  -7 -12    3.72    3.78
 -11   7 -12    3.30    4.17
 -13  -7 -12   -1.62    2.92
 -13   7 -12    0.14    3.32
  12  -8 -12   35.55    8.41
  12   8 -12   40.11    8.87
  12   8 -12   29.44    6.58
  10  -8 -12   51.57   10.74
  10   8 -12   47.59    9.22
  10   8 -12   47.70    8.89
   8  -8 -12   52.13   10.28
   8   8 -12   54.31    9.46
   6  -8 -12   39.22    8.58
   6   8 -12   60.42    9.77
   6   8 -12   49.06    9.77
   4  -8 -12   61.52   10.68
   4   8 -12   59.08    9.13
   4   8 -12   50.62    9.20
   2  -8 -12  157.13  116.22
   2  -8 -12   70.60   11.27
   2   8 -12   65.18   10.87
   2   8 -12   53.11    8.48
  -2   8  12  -71.62  105.60
   0  -8 -12   -1.23   92.74
   0  -8 -12   67.12   11.72
   0   8  12  162.58  110.27
   0   8 -12   80.75   12.37
  -2  -8 -12  224.66   98.23
  -2  -8 -12   50.81   10.09
   2   8  12  137.80  112.42
  -2   8 -12   70.06   11.20
  -4  -8 -12   68.69   11.30
  -4   8 -12   74.18   12.40
  -6  -8 -12   55.65    9.95
  -6   8 -12   44.81    9.02
  -8  -8 -12   61.47   10.24
  -8   8 -12   48.56   10.06
 -10  -8 -12   46.48    8.99
 -10   8 -12   52.37   10.56
   7  -9 -12    0.90    3.34
   7   9 -12    1.80    3.48
   5  -9 -12   -0.17    3.53
   5   9 -12    2.17    3.67
   5   9 -12   -0.53    3.26
   3  -9 -12   -1.49    3.24
   3   9 -12   -2.29    2.05
   3   9 -12   -0.79    2.92
   1  -9 -12   -0.90    3.35
   1   9 -12    0.20    2.88
   1   9 -12   -0.16    1.74
  -1  -9 -12    7.82    5.36
  -1   9 -12    5.39    4.43
  -3  -9 -12   -1.90    3.07
  -3   9 -12    1.60    4.24
  -5  -9 -12    7.37    4.86
  -5   9 -12    6.86    4.99
  18   0 -13    9.17    4.50
  16   0 -13    7.79    4.73
  14   0 -13   11.25    4.48
  14   0 -13  -14.69   72.26
  12   0 -13   14.71   65.41
  12   0 -13   27.44    6.27
 -12   0  13 -106.10  104.26
 -10   0  13   33.91   92.72
  10   0 -13    8.04    4.32
  10   0 -13  -18.18   44.33
   8   0 -13   43.44   46.12
  -8   0  13   45.26   88.34
   8   0 -13   20.19    5.46
  -6   0  13   20.76   59.87
   6   0 -13   13.28    4.77
   6   0 -13  -77.51   47.74
  -4   0  13  101.52   76.76
   4   0 -13   49.72   51.88
  -2   0  13  -42.94   65.85
   2   0 -13   15.33    4.83
   2   0 -13   31.00   46.77
   0   0 -13   22.79   44.98
   0   0  13   18.34   62.45
  -2   0 -13    8.71    3.77
  -4   0 -13   13.01    4.11
  -6   0 -13   15.50    4.09
  -8   0 -13    4.78    2.78
 -10   0 -13   -0.92    2.91
 -10   0 -13   -0.85    1.04
 -12   0 -13    1.48    3.84
 -12   0 -13   -0.02    0.85
 -14   0 -13    1.57    3.83
 -16   0 -13    3.60    4.06
  19  -1 -13   19.93    5.97
  19   1 -13   18.94    5.88
  19   1 -13   19.95    6.05
  17  -1 -13   12.17    5.69
  17   1 -13   25.44    7.07
  17   1 -13   24.10    6.11
  15  -1 -13   37.43    8.16
 -15  -1  13  -64.73  111.65
  15   1 -13    1.17   78.70
 -15   1  13  109.76  157.75
  15   1 -13   45.96    8.36
  13  -1 -13   39.95   51.30
 -13  -1  13  -46.91  106.41
  13  -1 -13   46.98    8.33
  13   1 -13   18.93   51.58
  13   1 -13   46.27    8.56
  11  -1 -13   58.77    9.49
 -11  -1  13 -163.47   95.08
  11  -1 -13   46.18   67.12
  11   1 -13  139.32   67.20
  11   1 -13   60.00    9.83
   9  -1 -13   97.76   62.42
   9  -1 -13   54.98    9.12
  -9  -1  13   46.88   94.58
   9   1 -13   68.20    9.62
   9   1 -13   58.10   58.12
  -9   1  13   87.13   86.93
   7  -1 -13  101.64   10.21
   7  -1 -13   56.69   58.11
  -7  -1  13  -37.77   80.70
  -7   1  13   44.68   63.31
   7   1 -13  111.90   45.45
   7   1 -13   82.30    9.31
  -5  -1  13  235.79   88.37
   5  -1 -13  107.09   60.33
   5  -1 -13  119.53   11.19
  -5   1  13   65.81   79.38
   5   1 -13  106.12   55.94
   5   1 -13  109.35   10.68
   3  -1 -13  124.08   11.50
   3  -1 -13  246.97   61.48
  -3  -1  13  109.31   76.80
   3   1 -13  122.09   11.04
   3   1 -13  119.01   55.55
  -3   1  13  117.65   79.36
  -1  -1  13  145.46   69.36
   1  -1 -13   77.96   50.10
   1  -1 -13  100.21   10.05
   1   1 -13   55.21   47.76
   1   1 -13  118.78   10.27
  -1   1  13   87.39   69.94
  -1  -1 -13   99.70    9.95
  -1  -1 -13  113.12   54.95
  -1   1 -13  110.16    9.84
   1   1  13   -7.62   63.05
  -3  -1 -13  132.07   10.87
  -3   1 -13  120.53   10.19
  -5  -1 -13  129.17   10.76
  -5   1 -13  130.29    9.94
  -7  -1 -13   85.31    7.85
  -7   1 -13   79.60    7.24
  -9  -1 -13   88.09    7.72
  -9   1 -13   73.83   12.41
 -11   1 -13   64.86   10.77
 -13  -1 -13   56.04   10.39
 -13   1 -13   55.93   10.56
 -15  -1 -13   35.57    8.22
 -15   1 -13   45.11    9.34
 -17  -1 -13   44.61    8.58
 -17   1 -13   36.65    8.30
  18  -2 -13    7.35    4.83
  18   2 -13    8.63    5.03
  18   2 -13    0.74    2.75
  16  -2 -13    8.03    4.77
  16   2 -13    9.51    3.83
  16   2 -13    4.32    4.07
 -14  -2  13   96.15  114.33
  14  -2 -13   18.84    5.67
  14   2 -13   11.07    4.31
 -14   2  13 -101.42  106.13
  14   2 -13   10.07    3.99
  14   2 -13   63.63   72.63
  12  -2 -13  -20.34   68.56
 -12  -2  13  143.16  108.71
 -12   2  13   56.19  100.88
  12   2 -13  115.71   72.72
  10  -2 -13    9.03    4.90
 -10  -2  13  120.69   98.32
  10  -2 -13   15.70   48.42
  10   2 -13    3.68    2.80
  10   2 -13    1.74    3.21
  10   2 -13  -39.87   57.96
  -8  -2  13  -34.54   84.93
   8  -2 -13    0.33   57.76
   8  -2 -13    5.75    4.14
   8   2 -13    6.04   55.98
   8   2 -13    6.22    3.66
  -8   2  13  -43.51   85.91
  -6  -2  13   44.75   62.27
   6  -2 -13    7.32    4.41
   6  -2 -13  -45.67   53.08
  -6   2  13 -130.90   76.90
   6   2 -13   16.02    5.15
   6   2 -13   -7.20   52.84
  -4  -2  13   24.00   72.86
   4  -2 -13  -79.85   52.76
   4  -2 -13    4.83    3.76
   4   2 -13  -34.91   37.54
   4   2 -13   12.97    4.40
  -4   2  13   94.14   79.67
   2  -2 -13   11.40    4.46
   2  -2 -13  -58.58   47.71
  -2  -2  13  -41.61   76.84
   2   2 -13   11.69    4.07
   2   2 -13   36.65   48.28
  -2   2  13   -9.67   70.91
   0  -2 -13    7.25    3.47
   0  -2 -13    1.54   51.19
   0   2 -13    1.11    2.58
   0   2  13  -53.04   69.09
  -2  -2 -13    2.33    3.29
  -2  -2 -13  -32.14   51.29
   2   2  13   53.28   69.64
  -2   2 -13    2.85    2.88
  -4  -2 -13    5.54    3.56
  -4   2 -13   11.79    3.67
  -6  -2 -13    5.80    3.51
  -6   2 -13    8.67    5.00
  -6   2 -13    8.93    3.33
  -8  -2 -13    2.31    2.69
  -8   2 -13    2.76    3.78
  -8   2 -13   -0.57    0.75
 -10  -2 -13   10.06    3.50
 -10   2 -13   11.97    5.23
 -12  -2 -13    7.04    4.55
 -12  -2 -13   -1.45    1.19
 -12   2 -13    0.41    3.55
 -14  -2 -13    3.41    3.97
 -14  -2 -13    0.05    0.97
 -14   2 -13    2.84    3.80
 -16  -2 -13    0.96    3.41
 -16   2 -13    1.99    3.92
  17  -3 -13   24.26    6.80
  17   3 -13   17.64    5.44
  17   3 -13   24.11    6.66
 -15  -3  13    6.39  133.07
  15  -3 -13   33.15    7.49
  15   3 -13   72.83   87.55
  15   3 -13   22.62    6.31
  15   3 -13   27.21    5.95
  13  -3 -13   27.32    6.81
 -13  -3  13  -58.15  110.88
  13   3 -13  -74.30   70.82
 -13   3  13   29.77  107.41
 -11  -3  13    6.24   98.34
  11  -3 -13   59.09    9.71
  11  -3 -13   26.05   67.21
  11   3 -13  -10.85   63.65
 -11   3  13   57.94  102.86
  11   3 -13   33.03    6.11
  11   3 -13   56.10    9.10
   9  -3 -13   14.25   66.60
  -9  -3  13  108.15   98.76
   9  -3 -13   58.61    9.49
   9   3 -13   61.77    9.73
   9   3 -13   49.02   60.18
   7  -3 -13  166.12   68.90
  -7  -3  13    8.25   67.06
   7  -3 -13   58.94    9.86
   7   3 -13   95.86   62.17
   7   3 -13   58.46    8.83
  -7   3  13   20.51   67.41
   5  -3 -13  -19.26   58.05
  -5   3  13 -127.19   77.59
   5   3 -13   -0.14    0.62
   3  -3 -13   82.43   61.58
   3   3 -13   91.14    9.15
  -3   3  13   51.41   85.01
   1  -3 -13   81.74   60.59
   1  -3 -13   92.09   12.18
   1   3 -13   83.97    8.76
  -1   3  13  226.01   84.12
  -1  -3 -13   91.43   60.13
  -1  -3 -13   81.59    9.31
  -1   3 -13  101.37    8.75
   1   3  13   26.00   75.78
  -3  -3 -13   92.44    9.70
  -3   3 -13  102.01   11.51
  -3   3 -13  100.85    8.53
  -5  -3 -13  104.52   10.21
  -5   3 -13  102.56   11.84
  -5   3 -13  108.90    8.57
  -7  -3 -13   84.02    8.86
  -7   3 -13   84.25   13.05
  -9  -3 -13   70.22    7.64
  -9   3 -13   81.52   12.94
 -11  -3 -13   70.40    7.38
 -11   3 -13   85.66   13.65
 -13  -3 -13   60.86   10.71
 -13   3 -13   58.65   10.66
 -15  -3 -13   50.42    9.69
 -15   3 -13   38.40    9.36
  16  -4 -13    4.13    4.19
  16   4 -13   14.01    5.41
  16   4 -13    5.06    3.34
 -14  -4  13  -41.32   94.37
  14  -4 -13    1.46    3.78
  14   4 -13  -52.57   94.71
  14   4 -13   12.70    4.64
  14   4 -13    0.28    1.50
 -12  -4  13  -51.62  137.26
  12  -4 -13    5.43    4.17
  12   4 -13  110.19   86.28
  12   4 -13    9.81    4.37
  10  -4 -13  -25.00   68.27
  10  -4 -13   10.06    4.79
 -10   4  13   56.07  109.48
  10   4 -13    9.71    4.84
   8  -4 -13   14.23   67.20
   8  -4 -13    8.87    4.79
   8   4 -13    9.87    4.67
   6  -4 -13   39.80   67.83
  -6   4  13   62.07   89.53
   4  -4 -13    0.29    2.84
   4  -4 -13   -9.02   64.45
   4   4 -13    1.44    2.92
  -4   4  13   45.30   84.71
   2  -4 -13    6.07    4.02
   2  -4 -13   23.81   65.71
   2   4 -13    0.04    0.13
   2   4 -13    4.38    3.40
  -2   4  13  -59.70   82.79
   0  -4 -13    8.47   63.41
   0  -4 -13    7.00    4.52
   0   4  13   38.53   85.97
   0   4 -13    4.89    3.19
   0   4 -13   11.18    5.16
  -2  -4 -13    1.03    3.07
  -2  -4 -13   -9.71   62.79
  -2   4 -13    4.57    4.26
   2   4  13  -36.58   86.34
  -2   4 -13    9.58    3.49
  -4  -4 -13   13.96    4.77
  -4   4 -13    5.13    3.79
  -4   4 -13    7.26    3.14
  -6  -4 -13    4.62    3.72
  -6   4 -13   -0.09    1.00
  -6   4 -13    3.64    4.37
  -8  -4 -13    2.99    3.12
  -8   4 -13    1.70    3.46
 -10  -4 -13    2.78    3.18
 -10   4 -13   -0.26    3.01
 -12  -4 -13    2.31    2.91
 -12   4 -13   -2.58    2.35
 -14  -4 -13   -0.74    1.39
 -14  -4 -13   -0.05    2.99
 -14   4 -13    3.06    4.15
  15  -5 -13   31.16    8.26
  15   5 -13   30.86    7.55
  13  -5 -13   32.45    7.66
  13   5 -13   25.41    6.85
  11  -5 -13   41.31    8.45
  11   5 -13   43.06    8.10
   9  -5 -13   58.84   10.22
   9   5 -13   57.11    9.55
   7  -5 -13   64.94   77.01
   7  -5 -13   49.85    9.38
   7   5 -13   59.63    9.39
  -7   5  13 -164.42  134.02
   7   5 -13   53.40   10.28
   5  -5 -13  -24.84   74.21
  -5   5  13  -53.47   94.92
   3  -5 -13   80.46   11.62
   3  -5 -13   44.31   71.21
   3   5 -13   73.05   11.80
  -3   5  13  108.01   97.47
   1  -5 -13   81.97   11.60
   1  -5 -13   -7.77   71.42
   1   5 -13   64.71   10.64
   1   5 -13   72.89    7.86
  -1   5  13   71.32   93.29
  -1  -5 -13  118.86   77.54
  -1  -5 -13   63.25    9.84
   1   5  13   31.34   89.87
  -1   5 -13   71.90   11.60
  -1   5 -13   84.69    8.01
  -3  -5 -13   85.06    9.37
  -3   5 -13   55.30    7.71
  -3   5 -13   64.81   11.15
  -5  -5 -13   67.65   10.39
  -5   5 -13   59.30   10.28
  -7  -5 -13   38.33    7.22
  -7   5 -13   40.03    9.49
  -9  -5 -13   45.48    7.68
  -9   5 -13   37.58    8.93
 -11  -5 -13   38.66    7.07
 -11   5 -13   50.35   10.34
 -13  -5 -13   37.31    6.68
 -13   5 -13   55.08   11.23
  12  -6 -13    9.55    5.39
  12   6 -13    5.55    3.85
  12   6 -13    2.41    3.71
  10  -6 -13   19.42    5.86
  10   6 -13    3.00    3.86
  10   6 -13    3.17    3.57
   8  -6 -13    8.03    4.92
   8   6 -13   10.94    4.82
   8   6 -13    6.07    4.29
  -6   6  13  121.39  118.53
   4  -6 -13    6.83    5.01
   4  -6 -13   52.59   85.38
   4   6 -13    7.88    4.05
  -4   6  13 -115.76  105.76
   4   6 -13    2.03    3.47
   2  -6 -13   88.47   86.94
  -2   6  13   26.23  100.57
   0  -6 -13    6.94    4.65
   0  -6 -13   43.73   85.50
   0   6 -13    3.64    4.27
   0   6 -13    2.71    3.03
   0   6  13    9.05  101.38
  -2  -6 -13    4.78    4.20
  -2   6 -13   -0.54    1.46
  -2   6 -13    5.73    4.31
  -4  -6 -13   -0.49    3.23
  -4   6 -13   -0.61    1.24
  -4   6 -13    3.79    3.81
  -6  -6 -13    0.00    3.07
  -6   6 -13   -3.94    2.10
  -8  -6 -13    1.22    2.98
  -8   6 -13   -3.25    2.20
 -10  -6 -13   -1.13    2.60
 -10   6 -13    1.79    4.01
   9  -7 -13   37.43    8.96
   9   7 -13   28.67    7.19
   7  -7 -13   36.21    8.39
   7   7 -13   49.38    8.85
   7   7 -13   40.04    7.89
   5  -7 -13   35.06    7.69
   5   7 -13   44.26    8.96
   5   7 -13   44.14    7.99
   3  -7 -13   42.41    8.51
   3   7 -13   52.02    8.27
   3   7 -13   51.06   10.18
  -1   7  13  -73.83  119.87
  -1  -7 -13   57.31   10.33
  -1   7 -13   73.25   11.43
  -3  -7 -13   71.51   11.43
  -3   7 -13   69.88   12.32
  -5  -7 -13   57.88    9.66
  -5   7 -13   51.47    9.95
  -7  -7 -13   29.63    7.20
  -7   7 -13   35.17    8.24
  14   0 -14   35.69    7.49
 -12   0  14  -73.09  182.41
  12   0 -14   35.05    7.63
  10   0 -14   38.17    7.36
  10   0 -14  102.11   83.36
 -10   0  14   47.02  121.33
  -8   0  14 -215.51  105.96
   8   0 -14   91.79   72.23
   6   0 -14   66.39    9.84
   4   0 -14   86.41    9.20
   2   0 -14   84.04    9.10
   0   0 -14   64.29    8.82
  -2   0 -14   87.78    8.57
  -4   0 -14   85.68    8.39
  -6   0 -14   87.09    8.21
  -8   0 -14   58.15    6.10
  -8   0 -14   48.84    9.31
 -10   0 -14   61.01   11.25
 -12   0 -14   69.27   12.08
  13  -1 -14    1.74    3.81
  13   1 -14    8.07    4.94
 -11  -1  14   52.82  137.49
 -11   1  14   78.46  137.59
  11   1 -14  -36.52   83.48
   9  -1 -14    5.20    4.12
   9  -1 -14    0.33   75.11
   9   1 -14    7.34    4.27
  -9   1  14   46.96  114.97
   7  -1 -14   13.91   74.22
   7   1 -14    9.94    4.00
  -7   1  14   64.58  109.61
   5  -1 -14    2.37    3.39
   5  -1 -14  139.50   80.90
  -5   1  14 -133.93   83.61
   5   1 -14   11.94    4.18
   3  -1 -14   13.83    4.51
   3   1 -14    3.47    3.39
   1  -1 -14    5.66    3.96
   1   1 -14    3.78    3.21
  -1  -1 -14    1.15    2.87
  -1   1 -14    2.00    2.85
  -3  -1 -14    5.32    3.61
  -3   1 -14    1.74    2.83
  -5  -1 -14    2.58    3.16
  -5   1 -14    3.89    3.13
  -7  -1 -14    4.52    3.20
  -7   1 -14    4.06    4.05
  -7   1 -14    1.11    2.06
  -9  -1 -14    4.42    2.76
  -9   1 -14   -0.32    1.02
  -9   1 -14    4.61    4.18
 -11  -1 -14   -0.37    1.04
 -11  -1 -14    8.57    5.38
 -11   1 -14    1.83    4.14
  14   2 -14   25.23    5.92
  12  -2 -14   30.81    7.10
  12   2 -14   20.93    6.05
  12   2 -14   17.28    4.73
  10  -2 -14   36.73    8.03
  10   2 -14   20.07    5.68
 -10   2  14   14.09  125.59
   8  -2 -14   39.44    8.33
   8  -2 -14   37.56   58.36
   8   2 -14   39.68    7.20
  -8   2  14  131.56  125.58
   6  -2 -14   47.14    8.20
   6  -2 -14   36.47   68.98
   6   2 -14   51.82    8.53
  -6   2  14  -35.71  107.33
  -4   2  14  348.60  210.41
   2  -2 -14   50.24    8.63
   2   2 -14   55.48    8.58
   0  -2 -14   72.54   10.29
   0   2 -14   68.65    7.50
  -2  -2 -14   62.81    9.78
  -2   2 -14   65.76    7.35
  -4  -2 -14   50.38    7.80
  -4   2 -14   66.46   11.36
  -4   2 -14   49.27    7.05
  -6  -2 -14   56.13    8.14
  -6   2 -14   82.33   13.26
  -8  -2 -14   45.44    7.12
  -8   2 -14   55.48   10.64
 -10  -2 -14   37.64    6.00
 -10   2 -14   45.24    9.69
 -12  -2 -14   35.20    7.83
 -12   2 -14   43.07    9.73
  13   3 -14   -0.05    1.30
  11  -3 -14    0.84    3.49
  11   3 -14    0.14    1.16
  11   3 -14    6.91    4.55
  -9   3  14   65.72  168.32
   7  -3 -14   28.26   59.11
  -7   3  14   87.83  119.64
   5  -3 -14   72.81   76.59
  -5   3  14   37.28  116.47
   3  -3 -14    1.46    3.37
   3   3 -14    0.19    0.84
   3   3 -14    5.02    3.67
   1  -3 -14    1.34    3.35
   1   3 -14   -0.15    2.42
  -1  -3 -14    3.64    3.70
  -1   3 -14    2.92    3.68
  -1   3 -14    0.68    2.60
  -3  -3 -14    6.48    4.28
  -3   3 -14    0.32    2.16
  -3   3 -14    3.95    4.01
  -5  -3 -14    2.23    3.42
  -5   3 -14    1.82    3.71
  -5   3 -14   -0.54    1.22
  -7  -3 -14   -0.92    2.19
  -7   3 -14    0.08    1.20
  -7   3 -14    0.61    3.13
  -9  -3 -14    1.45    2.82
  -9   3 -14    2.50    4.03
 -11  -3 -14   -0.16    2.02
 -11   3 -14    2.50    4.14
  10  -4 -14   38.22    8.27
  10   4 -14   33.07    7.50
   8  -4 -14   48.40    9.20
   8   4 -14   50.37    8.53
   6  -4 -14   50.48    8.93
  -6   4  14   47.43  128.93
   6   4 -14   72.93   10.02
   4  -4 -14   56.73    9.94
   4  -4 -14   74.67   96.27
   4   4 -14   54.84    8.61
  -4   4  14   89.35   93.35
   2  -4 -14   60.39    9.52
   2   4 -14   65.43    8.93
   2   4 -14   58.12   10.75
   0  -4 -14   68.09   10.35
   0   4 -14   64.11   11.42
   0   4 -14   58.53    8.21
  -2  -4 -14   60.64    9.54
  -2   4 -14   67.31   11.83
  -2   4 -14   61.23    8.16
  -4  -4 -14   44.75    7.77
  -4   4 -14   60.81   11.73
  -6  -4 -14   57.61    9.06
  -6   4 -14   47.18   10.16
  -8  -4 -14   50.58    8.16
  -8   4 -14   38.28    8.90
   7  -5 -14    5.11    4.47
   7   5 -14    9.15    5.44
   7   5 -14    5.85    4.35
   5  -5 -14   16.29    5.66
   5   5 -14    7.07    5.11
   5   5 -14    6.42    4.11
   3  -5 -14    1.94    3.53
   3   5 -14    2.22    3.34
   3   5 -14    3.31    4.13
   1  -5 -14    2.90    3.85
   1   5 -14    4.58    4.24
   1   5 -14    2.77    3.20
  -1  -5 -14    3.12    3.47
  -1   5 -14    4.75    4.29
  -1   5 -14    6.07    3.72
  -3  -5 -14   -0.16    2.94
  -3   5 -14    0.02    1.40
  -3   5 -14    2.46    3.80
  -5  -5 -14    2.31    3.55
  -5   5 -14    2.32    3.38
   6   0 -15    7.15    4.52
   4   0 -15    1.19    3.36
   2   0 -15    0.29    2.76
   0   0 -15    2.04    3.43
  -2   0 -15    4.10    3.59
  -4   0 -15    3.79    3.14
   5  -1 -15   43.47    8.00
   5   1 -15   52.31    8.51
   3  -1 -15   49.30    8.44
   3   1 -15   46.28    7.88
   1  -1 -15   31.31    6.49
   1   1 -15   39.27    7.16
  -1  -1 -15   33.99    6.58
  -1   1 -15   39.75    7.09
  -3  -1 -15   50.04    7.62
  -3   1 -15   39.12    6.71
   2  -2 -15    3.47    3.73
   2   2 -15    6.23    3.83
   0  -2 -15    5.87    4.05
   0   2 -15    4.45    3.58
   0   0   0    0.00    0.00


_computing_structure_solution     'SHELXT 2018/2 (Sheldrick, 2018)'
_computing_structure_solution     'SHELXT 2018/2 (Sheldrick, 2018)'
;
_shelx_hkl_checksum   70766

